150
Coordinates from ORCA-job relax E -4589.876421443492
  C       7.138060     -6.127498     -0.000000
  C       5.704943     -6.150861     -0.000000
  C       7.842926     -7.352524     -0.000000
  C       5.021976     -7.388442     -0.000000
  C       7.163769     -8.551010     -0.000000
  C       5.770461     -8.574868     -0.000000
  C       7.129778     -3.674693     -0.000000
  C       5.686918     -3.689949     -0.000000
  C       7.808846     -4.899985     -0.000000
  C       4.988132     -4.916360     -0.000000
  C       7.132930     -1.222565     -0.000000
  C       5.691326     -1.228309     -0.000000
  C       7.804381     -2.454644     -0.000000
  C       4.980143     -2.461679     -0.000000
  C       7.805543      0.000000      0.000000
  C       4.981603      0.000000     -0.000000
  C       3.564119     -4.916816     -0.000000
  C       2.856216     -6.160694     -0.000000
  C       3.568607     -7.386232     -0.000000
  C       3.556556     -2.461524     -0.000000
  C       2.850880     -3.692558     -0.000000
  C       3.551997      0.000000     -0.000000
  C       2.843910     -1.227804     -0.000000
  C       1.428659     -6.159735     -0.000000
  C       0.722695     -7.384607     -0.000000
  C       2.831370     -8.580813     -0.000000
  C       1.461837     -8.580189     -0.000000
  C       1.419167     -3.693537     -0.000000
  C       0.710395     -4.920674     -0.000000
  C       1.422630     -1.228653     -0.000000
  C       0.710632     -2.465289     -0.000000
  C       0.713852      0.000000      0.000000
  C      -7.138060      6.127498     -0.000000
  C      -5.704944      6.150861     -0.000000
  C      -7.842926      7.352524     -0.000000
  C      -5.021976      7.388442     -0.000000
  C      -7.163770      8.551009     -0.000000
  C      -5.770461      8.574868     -0.000000
  C      -7.129778      3.674693     -0.000000
  C      -5.686918      3.689949     -0.000000
  C      -7.808847      4.899984     -0.000000
  C      -4.988132      4.916360     -0.000000
  C      -7.132929      1.222565     -0.000000
  C      -5.691325      1.228309     -0.000000
  C      -7.804381      2.454644     -0.000000
  C      -4.980143      2.461678     -0.000000
  C      -7.805542     -0.000000      0.000000
  C      -4.981602     -0.000000      0.000000
  C      -3.564119      4.916816     -0.000000
  C      -2.856216      6.160694     -0.000000
  C      -3.568607      7.386231     -0.000000
  C      -3.556555      2.461524     -0.000000
  C      -2.850880      3.692557     -0.000000
  C      -3.551997     -0.000000      0.000000
  C      -2.843909      1.227804     -0.000000
  C      -1.428660      6.159735     -0.000000
  C      -0.722696      7.384607     -0.000000
  C      -2.831370      8.580813     -0.000000
  C      -1.461837      8.580189     -0.000000
  C      -1.419167      3.693537     -0.000000
  C      -0.710395      4.920674     -0.000000
  C      -1.422630      1.228653      0.000000
  C      -0.710632      2.465289      0.000000
  C      -0.713851     -0.000000      0.000000
  C       7.138060      6.127499      0.000000
  C       5.704944      6.150862      0.000000
  C       7.842926      7.352524      0.000000
  C       5.021977      7.388443      0.000000
  C       7.163770      8.551010      0.000000
  C       5.770461      8.574869      0.000000
  C       7.129779      3.674693      0.000000
  C       5.686918      3.689950      0.000000
  C       7.808847      4.899985      0.000000
  C       4.988133      4.916361      0.000000
  C       7.132930      1.222565      0.000000
  C       5.691326      1.228310      0.000000
  C       7.804381      2.454644      0.000000
  C       4.980143      2.461679      0.000000
  C       3.564120      4.916817      0.000000
  C       2.856216      6.160694      0.000000
  C       3.568607      7.386232      0.000000
  C       3.556556      2.461525      0.000000
  C       2.850880      3.692558      0.000000
  C       2.843910      1.227805      0.000000
  C       1.428660      6.159736      0.000000
  C       0.722696      7.384607     -0.000000
  C       2.831370      8.580813      0.000000
  C       1.461837      8.580189     -0.000000
  C       1.419167      3.693538      0.000000
  C       0.710395      4.920674     -0.000000
  C       1.422631      1.228653      0.000000
  C       0.710633      2.465289      0.000000
  C      -7.138060     -6.127498      0.000000
  C      -5.704944     -6.150861      0.000000
  C      -7.842926     -7.352524      0.000000
  C      -5.021976     -7.388442      0.000000
  C      -7.163769     -8.551009      0.000000
  C      -5.770461     -8.574868      0.000000
  C      -7.129778     -3.674693      0.000000
  C      -5.686918     -3.689949      0.000000
  C      -7.808847     -4.899984      0.000000
  C      -4.988132     -4.916360      0.000000
  C      -7.132929     -1.222565      0.000000
  C      -5.691325     -1.228309      0.000000
  C      -7.804381     -2.454644      0.000000
  C      -4.980143     -2.461679      0.000000
  C      -3.564119     -4.916816      0.000000
  C      -2.856216     -6.160694      0.000000
  C      -3.568607     -7.386232      0.000000
  C      -3.556556     -2.461524      0.000000
  C      -2.850880     -3.692558      0.000000
  C      -2.843910     -1.227804      0.000000
  C      -1.428660     -6.159735     -0.000000
  C      -0.722696     -7.384607     -0.000000
  C      -2.831370     -8.580813      0.000000
  C      -1.461837     -8.580189     -0.000000
  C      -1.419167     -3.693537     -0.000000
  C      -0.710395     -4.920674     -0.000000
  C      -1.422630     -1.228653      0.000000
  C      -0.710633     -2.465289     -0.000000
  H      -8.926913     -7.332392      0.000000
  H      -7.712420     -9.485752      0.000000
  H      -5.275434     -9.535066      0.000000
  H      -8.893740     -4.895409      0.000000
  H      -8.888958     -2.456203      0.000000
  H      -3.341770     -9.532956      0.000000
  H      -0.954262     -9.533676     -0.000000
  H      -8.926913      7.332392     -0.000000
  H      -7.712420      9.485752     -0.000000
  H      -5.275434      9.535066     -0.000000
  H      -8.893741      4.895409     -0.000000
  H      -8.888958      2.456203     -0.000000
  H      -8.889998     -0.000000      0.000000
  H      -3.341770      9.532956     -0.000000
  H      -0.954262      9.533676     -0.000000
  H       8.926913      7.332393      0.000000
  H       7.712421      9.485752      0.000000
  H       5.275434      9.535067      0.000000
  H       8.893741      4.895409      0.000000
  H       8.888958      2.456203      0.000000
  H       3.341769      9.532957      0.000000
  H       0.954262      9.533676     -0.000000
  H       8.926912     -7.332393     -0.000000
  H       7.712420     -9.485752     -0.000000
  H       5.275433     -9.535066     -0.000000
  H       8.893740     -4.895409     -0.000000
  H       8.888958     -2.456203     -0.000000
  H       8.889999      0.000000      0.000000
  H       3.341769     -9.532956     -0.000000
  H       0.954262     -9.533676     -0.000000
