148
 Energy =   -4513.2265353380
 C    7.1153649   -6.1058375    0.0000000  0.00   -0.0002414    0.0009804   -0.0000000
 C    5.6823539   -6.0680288    0.0000000  0.00   -0.0022055    0.0004580   -0.0000000
 C    7.7779706   -7.3534246    0.0000000  0.00   -0.0001687   -0.0005150   -0.0000000
 C    4.9584437   -7.2778453    0.0000000  0.00   -0.0011244   -0.0010031   -0.0000000
 C    7.0543962   -8.5244912    0.0000000  0.00    0.0002621    0.0018146   -0.0000000
 C    5.6638432   -8.4928104    0.0000000  0.00   -0.0001029    0.0002201   -0.0000000
 C    7.1912054   -3.6712680    0.0000000  0.00    0.0001297    0.0017363   -0.0000000
 C    5.7512488   -3.6375089    0.0000000  0.00   -0.0031180    0.0014298   -0.0000000
 C    7.8363026   -4.9071834    0.0000000  0.00    0.0030520    0.0005689   -0.0000000
 C    4.9961890   -4.8207704    0.0000000  0.00    0.0032162    0.0006501   -0.0000000
 C    7.2744837   -1.2329757    0.0000000  0.00   -0.0009311   -0.0001680   -0.0000000
 C    5.8383784   -1.2247197    0.0000000  0.00    0.0006438    0.0026040   -0.0000000
 C    7.9224578   -2.4669351    0.0000000  0.00    0.0029284    0.0011943   -0.0000000
 C    5.0779131   -2.4031600    0.0000000  0.00    0.0010400   -0.0033174   -0.0000000
 C    7.9597924    0.0000000    0.0000000  0.00    0.0024644   -0.0000000   -0.0000000
 C    5.1592753    0.0000000    0.0000000  0.00    0.0013173   -0.0000000   -0.0000000
 C    3.5646627   -4.7596907    0.0000000  0.00   -0.0029929    0.0006964   -0.0000000
 C    2.8365426   -5.9584439    0.0000000  0.00   -0.0009699    0.0001939   -0.0000000
 C    3.5165458   -7.2145171    0.0000000  0.00   -0.0007197    0.0015815   -0.0000000
 C    3.6422953   -2.3591373    0.0000000  0.00   -0.0006323    0.0037112   -0.0000000
 C    2.8637544   -3.5107882    0.0000000  0.00    0.0003120   -0.0019831   -0.0000000
 C    3.7711505    0.0000000    0.0000000  0.00   -0.0003495   -0.0000000   -0.0000000
 C    2.9785064   -1.1338612    0.0000000  0.00   -0.0016838   -0.0003365   -0.0000000
 C    1.4147700   -5.8701101    0.0000000  0.00   -0.0004043   -0.0000606   -0.0000000
 C    0.7111846   -7.0946553    0.0000000  0.00   -0.0040676    0.0002053   -0.0000000
 C    2.7583765   -8.3848276    0.0000000  0.00   -0.0006266   -0.0014949   -0.0000000
 C    1.4019919   -8.3208674    0.0000000  0.00    0.0007181   -0.0014618   -0.0000000
 C    1.4284540   -3.3567580    0.0000000  0.00   -0.0023221    0.0008438   -0.0000000
 C    0.7124414   -4.5963156    0.0000000  0.00   -0.0005499   -0.0011790   -0.0000000
 C    1.5840933   -0.8397490    0.0000000  0.00   -0.0015927    0.0000185   -0.0000000
 C    0.7452417   -2.0087589    0.0000000  0.00   -0.0004972    0.0009361   -0.0000000
 H    8.8641436   -7.3711280    0.0000000  0.00    0.0005160    0.0018678   -0.0000000
 H    7.5641515   -9.4839210    0.0000000  0.00    0.0007692   -0.0019486   -0.0000000
 H    5.1325193   -9.4397600    0.0000000  0.00    0.0012413   -0.0000333   -0.0000000
 H    8.9213519   -4.9427542    0.0000000  0.00   -0.0007718   -0.0004364   -0.0000000
 H    9.0064944   -2.5089010    0.0000000  0.00   -0.0023382   -0.0030384   -0.0000000
 H    9.0445475    0.0000000    0.0000000  0.00   -0.0029252   -0.0000000   -0.0000000
 H    3.2241353   -9.3674840    0.0000000  0.00   -0.0003988   -0.0003899   -0.0000000
 H    0.8696270   -9.2677801    0.0000000  0.00    0.0030904    0.0004138   -0.0000000
 C   -7.1153649    6.1058375    0.0000000  0.00    0.0002414   -0.0009804   -0.0000000
 C   -5.6823539    6.0680288    0.0000000  0.00    0.0022055   -0.0004580   -0.0000000
 C   -7.7779706    7.3534246    0.0000000  0.00    0.0001687    0.0005150   -0.0000000
 C   -4.9584437    7.2778453    0.0000000  0.00    0.0011244    0.0010031   -0.0000000
 C   -7.0543962    8.5244912    0.0000000  0.00   -0.0002621   -0.0018146   -0.0000000
 C   -5.6638432    8.4928104    0.0000000  0.00    0.0001029   -0.0002201   -0.0000000
 C   -7.1912054    3.6712680    0.0000000  0.00   -0.0001297   -0.0017363   -0.0000000
 C   -5.7512488    3.6375089    0.0000000  0.00    0.0031180   -0.0014298   -0.0000000
 C   -7.8363026    4.9071834    0.0000000  0.00   -0.0030520   -0.0005689   -0.0000000
 C   -4.9961890    4.8207704    0.0000000  0.00   -0.0032162   -0.0006501   -0.0000000
 C   -7.2744837    1.2329757    0.0000000  0.00    0.0009311    0.0001680   -0.0000000
 C   -5.8383784    1.2247197    0.0000000  0.00   -0.0006438   -0.0026040   -0.0000000
 C   -7.9224578    2.4669351    0.0000000  0.00   -0.0029284   -0.0011943   -0.0000000
 C   -5.0779131    2.4031600    0.0000000  0.00   -0.0010400    0.0033174   -0.0000000
 C   -7.9597924    0.0000000    0.0000000  0.00   -0.0024644   -0.0000000   -0.0000000
 C   -5.1592753    0.0000000    0.0000000  0.00   -0.0013173   -0.0000000   -0.0000000
 C   -3.5646627    4.7596907    0.0000000  0.00    0.0029929   -0.0006964   -0.0000000
 C   -2.8365426    5.9584439    0.0000000  0.00    0.0009699   -0.0001939   -0.0000000
 C   -3.5165458    7.2145171    0.0000000  0.00    0.0007197   -0.0015815   -0.0000000
 C   -3.6422953    2.3591373    0.0000000  0.00    0.0006323   -0.0037112   -0.0000000
 C   -2.8637544    3.5107882    0.0000000  0.00   -0.0003120    0.0019831   -0.0000000
 C   -3.7711505    0.0000000    0.0000000  0.00    0.0003495   -0.0000000   -0.0000000
 C   -2.9785064    1.1338612    0.0000000  0.00    0.0016838    0.0003365   -0.0000000
 C   -1.4147700    5.8701101    0.0000000  0.00    0.0004043    0.0000606   -0.0000000
 C   -0.7111846    7.0946553    0.0000000  0.00    0.0040676   -0.0002053   -0.0000000
 C   -2.7583765    8.3848276    0.0000000  0.00    0.0006266    0.0014949   -0.0000000
 C   -1.4019919    8.3208674    0.0000000  0.00   -0.0007181    0.0014618   -0.0000000
 C   -1.4284540    3.3567580    0.0000000  0.00    0.0023221   -0.0008438   -0.0000000
 C   -0.7124414    4.5963156    0.0000000  0.00    0.0005499    0.0011790   -0.0000000
 C   -1.5840933    0.8397490    0.0000000  0.00    0.0015927   -0.0000185   -0.0000000
 C   -0.7452417    2.0087589    0.0000000  0.00    0.0004972   -0.0009361   -0.0000000
 H   -8.8641436    7.3711280    0.0000000  0.00   -0.0005160   -0.0018678   -0.0000000
 H   -7.5641515    9.4839210    0.0000000  0.00   -0.0007692    0.0019486   -0.0000000
 H   -5.1325193    9.4397600    0.0000000  0.00   -0.0012413    0.0000333   -0.0000000
 H   -8.9213519    4.9427542    0.0000000  0.00    0.0007718    0.0004364   -0.0000000
 H   -9.0064944    2.5089010    0.0000000  0.00    0.0023382    0.0030384   -0.0000000
 H   -9.0445475    0.0000000    0.0000000  0.00    0.0029252   -0.0000000   -0.0000000
 H   -3.2241353    9.3674840    0.0000000  0.00    0.0003988    0.0003899   -0.0000000
 H   -0.8696270    9.2677801    0.0000000  0.00   -0.0030904   -0.0004138   -0.0000000
 C    7.1153649    6.1058375    0.0000000  0.00   -0.0002414   -0.0009804   -0.0000000
 C    5.6823539    6.0680288    0.0000000  0.00   -0.0022055   -0.0004580   -0.0000000
 C    7.7779706    7.3534246    0.0000000  0.00   -0.0001687    0.0005150   -0.0000000
 C    4.9584437    7.2778453    0.0000000  0.00   -0.0011244    0.0010031   -0.0000000
 C    7.0543962    8.5244912    0.0000000  0.00    0.0002621   -0.0018146   -0.0000000
 C    5.6638432    8.4928104    0.0000000  0.00   -0.0001029   -0.0002201   -0.0000000
 C    7.1912054    3.6712680    0.0000000  0.00    0.0001297   -0.0017363   -0.0000000
 C    5.7512488    3.6375089    0.0000000  0.00   -0.0031180   -0.0014298   -0.0000000
 C    7.8363026    4.9071834    0.0000000  0.00    0.0030520   -0.0005689   -0.0000000
 C    4.9961890    4.8207704    0.0000000  0.00    0.0032162   -0.0006501   -0.0000000
 C    7.2744837    1.2329757    0.0000000  0.00   -0.0009311    0.0001680   -0.0000000
 C    5.8383784    1.2247197    0.0000000  0.00    0.0006438   -0.0026040   -0.0000000
 C    7.9224578    2.4669351    0.0000000  0.00    0.0029284   -0.0011943   -0.0000000
 C    5.0779131    2.4031600    0.0000000  0.00    0.0010400    0.0033174   -0.0000000
 C    3.5646627    4.7596907    0.0000000  0.00   -0.0029929   -0.0006964   -0.0000000
 C    2.8365426    5.9584439    0.0000000  0.00   -0.0009699   -0.0001939   -0.0000000
 C    3.5165458    7.2145171    0.0000000  0.00   -0.0007197   -0.0015815   -0.0000000
 C    3.6422953    2.3591373    0.0000000  0.00   -0.0006323   -0.0037112   -0.0000000
 C    2.8637544    3.5107882    0.0000000  0.00    0.0003120    0.0019831   -0.0000000
 C    2.9785064    1.1338612    0.0000000  0.00   -0.0016838    0.0003365   -0.0000000
 C    1.4147700    5.8701101    0.0000000  0.00   -0.0004043    0.0000606   -0.0000000
 C    0.7111846    7.0946553    0.0000000  0.00   -0.0040676   -0.0002053   -0.0000000
 C    2.7583765    8.3848276    0.0000000  0.00   -0.0006266    0.0014949   -0.0000000
 C    1.4019919    8.3208674    0.0000000  0.00    0.0007181    0.0014618   -0.0000000
 C    1.4284540    3.3567580    0.0000000  0.00   -0.0023221   -0.0008438   -0.0000000
 C    0.7124414    4.5963156    0.0000000  0.00   -0.0005499    0.0011790   -0.0000000
 C    1.5840933    0.8397490    0.0000000  0.00   -0.0015927   -0.0000185   -0.0000000
 C    0.7452417    2.0087589    0.0000000  0.00   -0.0004972   -0.0009361   -0.0000000
 H    8.8641436    7.3711280    0.0000000  0.00    0.0005160   -0.0018678   -0.0000000
 H    7.5641515    9.4839210    0.0000000  0.00    0.0007692    0.0019486   -0.0000000
 H    5.1325193    9.4397600    0.0000000  0.00    0.0012413    0.0000333   -0.0000000
 H    8.9213519    4.9427542    0.0000000  0.00   -0.0007718    0.0004364   -0.0000000
 H    9.0064944    2.5089010    0.0000000  0.00   -0.0023382    0.0030384   -0.0000000
 H    3.2241353    9.3674840    0.0000000  0.00   -0.0003988    0.0003899   -0.0000000
 H    0.8696270    9.2677801    0.0000000  0.00    0.0030904   -0.0004138   -0.0000000
 C   -7.1153649   -6.1058375    0.0000000  0.00    0.0002414    0.0009804   -0.0000000
 C   -5.6823539   -6.0680288    0.0000000  0.00    0.0022055    0.0004580   -0.0000000
 C   -7.7779706   -7.3534246    0.0000000  0.00    0.0001687   -0.0005150   -0.0000000
 C   -4.9584437   -7.2778453    0.0000000  0.00    0.0011244   -0.0010031   -0.0000000
 C   -7.0543962   -8.5244912    0.0000000  0.00   -0.0002621    0.0018146   -0.0000000
 C   -5.6638432   -8.4928104    0.0000000  0.00    0.0001029    0.0002201   -0.0000000
 C   -7.1912054   -3.6712680    0.0000000  0.00   -0.0001297    0.0017363   -0.0000000
 C   -5.7512488   -3.6375089    0.0000000  0.00    0.0031180    0.0014298   -0.0000000
 C   -7.8363026   -4.9071834    0.0000000  0.00   -0.0030520    0.0005689   -0.0000000
 C   -4.9961890   -4.8207704    0.0000000  0.00   -0.0032162    0.0006501   -0.0000000
 C   -7.2744837   -1.2329757    0.0000000  0.00    0.0009311   -0.0001680   -0.0000000
 C   -5.8383784   -1.2247197    0.0000000  0.00   -0.0006438    0.0026040   -0.0000000
 C   -7.9224578   -2.4669351    0.0000000  0.00   -0.0029284    0.0011943   -0.0000000
 C   -5.0779131   -2.4031600    0.0000000  0.00   -0.0010400   -0.0033174   -0.0000000
 C   -3.5646627   -4.7596907    0.0000000  0.00    0.0029929    0.0006964   -0.0000000
 C   -2.8365426   -5.9584439    0.0000000  0.00    0.0009699    0.0001939   -0.0000000
 C   -3.5165458   -7.2145171    0.0000000  0.00    0.0007197    0.0015815   -0.0000000
 C   -3.6422953   -2.3591373    0.0000000  0.00    0.0006323    0.0037112   -0.0000000
 C   -2.8637544   -3.5107882    0.0000000  0.00   -0.0003120   -0.0019831   -0.0000000
 C   -2.9785064   -1.1338612    0.0000000  0.00    0.0016838   -0.0003365   -0.0000000
 C   -1.4147700   -5.8701101    0.0000000  0.00    0.0004043   -0.0000606   -0.0000000
 C   -0.7111846   -7.0946553    0.0000000  0.00    0.0040676    0.0002053   -0.0000000
 C   -2.7583765   -8.3848276    0.0000000  0.00    0.0006266   -0.0014949   -0.0000000
 C   -1.4019919   -8.3208674    0.0000000  0.00   -0.0007181   -0.0014618   -0.0000000
 C   -1.4284540   -3.3567580    0.0000000  0.00    0.0023221    0.0008438   -0.0000000
 C   -0.7124414   -4.5963156    0.0000000  0.00    0.0005499   -0.0011790   -0.0000000
 C   -1.5840933   -0.8397490    0.0000000  0.00    0.0015927    0.0000185   -0.0000000
 C   -0.7452417   -2.0087589    0.0000000  0.00    0.0004972    0.0009361   -0.0000000
 H   -8.8641436   -7.3711280    0.0000000  0.00   -0.0005160    0.0018678   -0.0000000
 H   -7.5641515   -9.4839210    0.0000000  0.00   -0.0007692   -0.0019486   -0.0000000
 H   -5.1325193   -9.4397600    0.0000000  0.00   -0.0012413   -0.0000333   -0.0000000
 H   -8.9213519   -4.9427542    0.0000000  0.00    0.0007718   -0.0004364   -0.0000000
 H   -9.0064944   -2.5089010    0.0000000  0.00    0.0023382   -0.0030384   -0.0000000
 H   -3.2241353   -9.3674840    0.0000000  0.00    0.0003988   -0.0003899   -0.0000000
 H   -0.8696270   -9.2677801    0.0000000  0.00   -0.0030904    0.0004138   -0.0000000
