148
 Energy =   -4513.0664431830
 C    7.1060259   -6.0922955    0.0000000  0.00    0.0005542   -0.0019514   -0.0000000
 C    5.6753266   -6.0528216    0.0000000  0.00   -0.0012190    0.0007656   -0.0000000
 C    7.7744109   -7.3359413    0.0000000  0.00    0.0019649   -0.0000904   -0.0000000
 C    4.9541070   -7.2627563    0.0000000  0.00   -0.0004412    0.0001934   -0.0000000
 C    7.0547304   -8.5065596    0.0000000  0.00    0.0009452    0.0009533   -0.0000000
 C    5.6627440   -8.4733330    0.0000000  0.00   -0.0015179   -0.0002633   -0.0000000
 C    7.1883901   -3.6648134    0.0000000  0.00    0.0006451    0.0015029   -0.0000000
 C    5.7491313   -3.6288009    0.0000000  0.00   -0.0008452    0.0007152   -0.0000000
 C    7.8320381   -4.8986765    0.0000000  0.00    0.0006112    0.0005116   -0.0000000
 C    4.9924400   -4.8068865    0.0000000  0.00    0.0028325   -0.0020427   -0.0000000
 C    7.2903074   -1.2307154    0.0000000  0.00    0.0003288    0.0017520   -0.0000000
 C    5.8507103   -1.2214988    0.0000000  0.00   -0.0001800    0.0006036   -0.0000000
 C    7.9308050   -2.4676007    0.0000000  0.00   -0.0010658    0.0000117   -0.0000000
 C    5.0796708   -2.3939871    0.0000000  0.00    0.0031629    0.0009068   -0.0000000
 C    7.9778240    0.0000000    0.0000000  0.00   -0.0033291   -0.0000000   -0.0000000
 C    5.1704663    0.0000000    0.0000000  0.00    0.0027780   -0.0000000   -0.0000000
 C    3.5578454   -4.7423782    0.0000000  0.00    0.0003211    0.0004579   -0.0000000
 C    2.8316932   -5.9470143    0.0000000  0.00   -0.0012437   -0.0014839   -0.0000000
 C    3.5112094   -7.2008239    0.0000000  0.00   -0.0013275   -0.0012577   -0.0000000
 C    3.6422919   -2.3461353    0.0000000  0.00    0.0001537   -0.0005986   -0.0000000
 C    2.8604683   -3.4982703    0.0000000  0.00    0.0013749   -0.0008625   -0.0000000
 C    3.7821440    0.0000000    0.0000000  0.00   -0.0030148   -0.0000000   -0.0000000
 C    2.9812186   -1.1231927    0.0000000  0.00    0.0015434    0.0011805   -0.0000000
 C    1.4125343   -5.8572818    0.0000000  0.00    0.0007299   -0.0009536   -0.0000000
 C    0.7102975   -7.0812738    0.0000000  0.00   -0.0019857    0.0003439   -0.0000000
 C    2.7555099   -8.3740316    0.0000000  0.00   -0.0005433    0.0002461   -0.0000000
 C    1.4007886   -8.3095197    0.0000000  0.00    0.0014752    0.0000500   -0.0000000
 C    1.4207076   -3.3352556    0.0000000  0.00   -0.0005740   -0.0026176   -0.0000000
 C    0.7092203   -4.5812183    0.0000000  0.00    0.0010511   -0.0022346   -0.0000000
 C    1.5829689   -0.7986676    0.0000000  0.00   -0.0004158   -0.0006048   -0.0000000
 C    0.7340690   -1.9995681    0.0000000  0.00   -0.0000996   -0.0016439   -0.0000000
 H    8.8657278   -7.3422043    0.0000000  0.00    0.0017609   -0.0001614   -0.0000000
 H    7.5653316   -9.4688750    0.0000000  0.00   -0.0002705   -0.0005195   -0.0000000
 H    5.1325681   -9.4246913    0.0000000  0.00    0.0014142    0.0015410   -0.0000000
 H    8.9235267   -4.9396259    0.0000000  0.00   -0.0005501    0.0006363   -0.0000000
 H    9.0164641   -2.5268950    0.0000000  0.00   -0.0017383    0.0009812   -0.0000000
 H    9.0620378    0.0000000    0.0000000  0.00   -0.0022137   -0.0000000   -0.0000000
 H    3.2212552   -9.3590708    0.0000000  0.00   -0.0004611   -0.0019332   -0.0000000
 H    0.8695910   -9.2608077    0.0000000  0.00    0.0027896    0.0026048   -0.0000000
 C   -7.1060259    6.0922955    0.0000000  0.00   -0.0005542    0.0019514   -0.0000000
 C   -5.6753266    6.0528216    0.0000000  0.00    0.0012190   -0.0007656   -0.0000000
 C   -7.7744109    7.3359413    0.0000000  0.00   -0.0019649    0.0000904   -0.0000000
 C   -4.9541070    7.2627563    0.0000000  0.00    0.0004412   -0.0001934   -0.0000000
 C   -7.0547304    8.5065596    0.0000000  0.00   -0.0009452   -0.0009533   -0.0000000
 C   -5.6627440    8.4733330    0.0000000  0.00    0.0015179    0.0002633   -0.0000000
 C   -7.1883901    3.6648134    0.0000000  0.00   -0.0006451   -0.0015029   -0.0000000
 C   -5.7491313    3.6288009    0.0000000  0.00    0.0008452   -0.0007152   -0.0000000
 C   -7.8320381    4.8986765    0.0000000  0.00   -0.0006112   -0.0005116   -0.0000000
 C   -4.9924400    4.8068865    0.0000000  0.00   -0.0028325    0.0020427   -0.0000000
 C   -7.2903074    1.2307154    0.0000000  0.00   -0.0003288   -0.0017520   -0.0000000
 C   -5.8507103    1.2214988    0.0000000  0.00    0.0001800   -0.0006036   -0.0000000
 C   -7.9308050    2.4676007    0.0000000  0.00    0.0010658   -0.0000117   -0.0000000
 C   -5.0796708    2.3939871    0.0000000  0.00   -0.0031629   -0.0009068   -0.0000000
 C   -7.9778240    0.0000000    0.0000000  0.00    0.0033291   -0.0000000   -0.0000000
 C   -5.1704663    0.0000000    0.0000000  0.00   -0.0027780   -0.0000000   -0.0000000
 C   -3.5578454    4.7423782    0.0000000  0.00   -0.0003211   -0.0004579   -0.0000000
 C   -2.8316932    5.9470143    0.0000000  0.00    0.0012437    0.0014839   -0.0000000
 C   -3.5112094    7.2008239    0.0000000  0.00    0.0013275    0.0012577   -0.0000000
 C   -3.6422919    2.3461353    0.0000000  0.00   -0.0001537    0.0005986   -0.0000000
 C   -2.8604683    3.4982703    0.0000000  0.00   -0.0013749    0.0008625   -0.0000000
 C   -3.7821440    0.0000000    0.0000000  0.00    0.0030148   -0.0000000   -0.0000000
 C   -2.9812186    1.1231927    0.0000000  0.00   -0.0015434   -0.0011805   -0.0000000
 C   -1.4125343    5.8572818    0.0000000  0.00   -0.0007299    0.0009536   -0.0000000
 C   -0.7102975    7.0812738    0.0000000  0.00    0.0019857   -0.0003439   -0.0000000
 C   -2.7555099    8.3740316    0.0000000  0.00    0.0005433   -0.0002461   -0.0000000
 C   -1.4007886    8.3095197    0.0000000  0.00   -0.0014752   -0.0000500   -0.0000000
 C   -1.4207076    3.3352556    0.0000000  0.00    0.0005740    0.0026176   -0.0000000
 C   -0.7092203    4.5812183    0.0000000  0.00   -0.0010511    0.0022346   -0.0000000
 C   -1.5829689    0.7986676    0.0000000  0.00    0.0004158    0.0006048   -0.0000000
 C   -0.7340690    1.9995681    0.0000000  0.00    0.0000996    0.0016439   -0.0000000
 H   -8.8657278    7.3422043    0.0000000  0.00   -0.0017609    0.0001614   -0.0000000
 H   -7.5653316    9.4688750    0.0000000  0.00    0.0002705    0.0005195   -0.0000000
 H   -5.1325681    9.4246913    0.0000000  0.00   -0.0014142   -0.0015410   -0.0000000
 H   -8.9235267    4.9396259    0.0000000  0.00    0.0005501   -0.0006363   -0.0000000
 H   -9.0164641    2.5268950    0.0000000  0.00    0.0017383   -0.0009812   -0.0000000
 H   -9.0620378    0.0000000    0.0000000  0.00    0.0022137   -0.0000000   -0.0000000
 H   -3.2212552    9.3590708    0.0000000  0.00    0.0004611    0.0019332   -0.0000000
 H   -0.8695910    9.2608077    0.0000000  0.00   -0.0027896   -0.0026048   -0.0000000
 C    7.1060259    6.0922955    0.0000000  0.00    0.0005542    0.0019514   -0.0000000
 C    5.6753266    6.0528216    0.0000000  0.00   -0.0012190   -0.0007656   -0.0000000
 C    7.7744109    7.3359413    0.0000000  0.00    0.0019649    0.0000904   -0.0000000
 C    4.9541070    7.2627563    0.0000000  0.00   -0.0004412   -0.0001934   -0.0000000
 C    7.0547304    8.5065596    0.0000000  0.00    0.0009452   -0.0009533   -0.0000000
 C    5.6627440    8.4733330    0.0000000  0.00   -0.0015179    0.0002633   -0.0000000
 C    7.1883901    3.6648134    0.0000000  0.00    0.0006451   -0.0015029   -0.0000000
 C    5.7491313    3.6288009    0.0000000  0.00   -0.0008452   -0.0007152   -0.0000000
 C    7.8320381    4.8986765    0.0000000  0.00    0.0006112   -0.0005116   -0.0000000
 C    4.9924400    4.8068865    0.0000000  0.00    0.0028325    0.0020427   -0.0000000
 C    7.2903074    1.2307154    0.0000000  0.00    0.0003288   -0.0017520   -0.0000000
 C    5.8507103    1.2214988    0.0000000  0.00   -0.0001800   -0.0006036   -0.0000000
 C    7.9308050    2.4676007    0.0000000  0.00   -0.0010658   -0.0000117   -0.0000000
 C    5.0796708    2.3939871    0.0000000  0.00    0.0031629   -0.0009068   -0.0000000
 C    3.5578454    4.7423782    0.0000000  0.00    0.0003211   -0.0004579   -0.0000000
 C    2.8316932    5.9470143    0.0000000  0.00   -0.0012437    0.0014839   -0.0000000
 C    3.5112094    7.2008239    0.0000000  0.00   -0.0013275    0.0012577   -0.0000000
 C    3.6422919    2.3461353    0.0000000  0.00    0.0001537    0.0005986   -0.0000000
 C    2.8604683    3.4982703    0.0000000  0.00    0.0013749    0.0008625   -0.0000000
 C    2.9812186    1.1231927    0.0000000  0.00    0.0015434   -0.0011805   -0.0000000
 C    1.4125343    5.8572818    0.0000000  0.00    0.0007299    0.0009536   -0.0000000
 C    0.7102975    7.0812738    0.0000000  0.00   -0.0019857   -0.0003439   -0.0000000
 C    2.7555099    8.3740316    0.0000000  0.00   -0.0005433   -0.0002461   -0.0000000
 C    1.4007886    8.3095197    0.0000000  0.00    0.0014752   -0.0000500   -0.0000000
 C    1.4207076    3.3352556    0.0000000  0.00   -0.0005740    0.0026176   -0.0000000
 C    0.7092203    4.5812183    0.0000000  0.00    0.0010511    0.0022346   -0.0000000
 C    1.5829689    0.7986676    0.0000000  0.00   -0.0004158    0.0006048   -0.0000000
 C    0.7340690    1.9995681    0.0000000  0.00   -0.0000996    0.0016439   -0.0000000
 H    8.8657278    7.3422043    0.0000000  0.00    0.0017609    0.0001614   -0.0000000
 H    7.5653316    9.4688750    0.0000000  0.00   -0.0002705    0.0005195   -0.0000000
 H    5.1325681    9.4246913    0.0000000  0.00    0.0014142   -0.0015410   -0.0000000
 H    8.9235267    4.9396259    0.0000000  0.00   -0.0005501   -0.0006363   -0.0000000
 H    9.0164641    2.5268950    0.0000000  0.00   -0.0017383   -0.0009812   -0.0000000
 H    3.2212552    9.3590708    0.0000000  0.00   -0.0004611    0.0019332   -0.0000000
 H    0.8695910    9.2608077    0.0000000  0.00    0.0027896   -0.0026048   -0.0000000
 C   -7.1060259   -6.0922955    0.0000000  0.00   -0.0005542   -0.0019514   -0.0000000
 C   -5.6753266   -6.0528216    0.0000000  0.00    0.0012190    0.0007656   -0.0000000
 C   -7.7744109   -7.3359413    0.0000000  0.00   -0.0019649   -0.0000904   -0.0000000
 C   -4.9541070   -7.2627563    0.0000000  0.00    0.0004412    0.0001934   -0.0000000
 C   -7.0547304   -8.5065596    0.0000000  0.00   -0.0009452    0.0009533   -0.0000000
 C   -5.6627440   -8.4733330    0.0000000  0.00    0.0015179   -0.0002633   -0.0000000
 C   -7.1883901   -3.6648134    0.0000000  0.00   -0.0006451    0.0015029   -0.0000000
 C   -5.7491313   -3.6288009    0.0000000  0.00    0.0008452    0.0007152   -0.0000000
 C   -7.8320381   -4.8986765    0.0000000  0.00   -0.0006112    0.0005116   -0.0000000
 C   -4.9924400   -4.8068865    0.0000000  0.00   -0.0028325   -0.0020427   -0.0000000
 C   -7.2903074   -1.2307154    0.0000000  0.00   -0.0003288    0.0017520   -0.0000000
 C   -5.8507103   -1.2214988    0.0000000  0.00    0.0001800    0.0006036   -0.0000000
 C   -7.9308050   -2.4676007    0.0000000  0.00    0.0010658    0.0000117   -0.0000000
 C   -5.0796708   -2.3939871    0.0000000  0.00   -0.0031629    0.0009068   -0.0000000
 C   -3.5578454   -4.7423782    0.0000000  0.00   -0.0003211    0.0004579   -0.0000000
 C   -2.8316932   -5.9470143    0.0000000  0.00    0.0012437   -0.0014839   -0.0000000
 C   -3.5112094   -7.2008239    0.0000000  0.00    0.0013275   -0.0012577   -0.0000000
 C   -3.6422919   -2.3461353    0.0000000  0.00   -0.0001537   -0.0005986   -0.0000000
 C   -2.8604683   -3.4982703    0.0000000  0.00   -0.0013749   -0.0008625   -0.0000000
 C   -2.9812186   -1.1231927    0.0000000  0.00   -0.0015434    0.0011805   -0.0000000
 C   -1.4125343   -5.8572818    0.0000000  0.00   -0.0007299   -0.0009536   -0.0000000
 C   -0.7102975   -7.0812738    0.0000000  0.00    0.0019857    0.0003439   -0.0000000
 C   -2.7555099   -8.3740316    0.0000000  0.00    0.0005433    0.0002461   -0.0000000
 C   -1.4007886   -8.3095197    0.0000000  0.00   -0.0014752    0.0000500   -0.0000000
 C   -1.4207076   -3.3352556    0.0000000  0.00    0.0005740   -0.0026176   -0.0000000
 C   -0.7092203   -4.5812183    0.0000000  0.00   -0.0010511   -0.0022346   -0.0000000
 C   -1.5829689   -0.7986676    0.0000000  0.00    0.0004158   -0.0006048   -0.0000000
 C   -0.7340690   -1.9995681    0.0000000  0.00    0.0000996   -0.0016439   -0.0000000
 H   -8.8657278   -7.3422043    0.0000000  0.00   -0.0017609   -0.0001614   -0.0000000
 H   -7.5653316   -9.4688750    0.0000000  0.00    0.0002705   -0.0005195   -0.0000000
 H   -5.1325681   -9.4246913    0.0000000  0.00   -0.0014142    0.0015410   -0.0000000
 H   -8.9235267   -4.9396259    0.0000000  0.00    0.0005501    0.0006363   -0.0000000
 H   -9.0164641   -2.5268950    0.0000000  0.00    0.0017383    0.0009812   -0.0000000
 H   -3.2212552   -9.3590708    0.0000000  0.00    0.0004611   -0.0019332   -0.0000000
 H   -0.8695910   -9.2608077    0.0000000  0.00   -0.0027896    0.0026048   -0.0000000
