148
 Energy =   -4513.3814866410
 C    7.1206472   -6.1071401    0.0000000  0.00    0.0001765    0.0001464   -0.0000000
 C    5.6845984   -6.0728538    0.0000000  0.00    0.0006631    0.0012444   -0.0000000
 C    7.7819140   -7.3544043    0.0000000  0.00   -0.0002537    0.0008527   -0.0000000
 C    4.9623398   -7.2813483    0.0000000  0.00    0.0009396    0.0003985   -0.0000000
 C    7.0581081   -8.5282378    0.0000000  0.00    0.0011628    0.0004616   -0.0000000
 C    5.6688234   -8.4992259    0.0000000  0.00    0.0005314    0.0006634   -0.0000000
 C    7.1938518   -3.6683986    0.0000000  0.00   -0.0001461   -0.0004203   -0.0000000
 C    5.7495726   -3.6364822    0.0000000  0.00    0.0000299    0.0008823   -0.0000000
 C    7.8392385   -4.9073182    0.0000000  0.00   -0.0008294   -0.0006073   -0.0000000
 C    4.9950538   -4.8227225    0.0000000  0.00   -0.0006831   -0.0005937   -0.0000000
 C    7.2700278   -1.2297070    0.0000000  0.00   -0.0004704   -0.0002315   -0.0000000
 C    5.8357919   -1.2219648    0.0000000  0.00   -0.0000718   -0.0001389   -0.0000000
 C    7.9188857   -2.4688300    0.0000000  0.00   -0.0002073    0.0001036   -0.0000000
 C    5.0751014   -2.4066365    0.0000000  0.00   -0.0004868   -0.0003081   -0.0000000
 C    7.9506482    0.0000000    0.0000000  0.00   -0.0007476   -0.0000000   -0.0000000
 C    5.1574271    0.0000000    0.0000000  0.00   -0.0006103   -0.0000000   -0.0000000
 C    3.5674285   -4.7609077    0.0000000  0.00   -0.0003627    0.0003099   -0.0000000
 C    2.8387719   -5.9632409    0.0000000  0.00    0.0014654    0.0001184   -0.0000000
 C    3.5206256   -7.2140617    0.0000000  0.00    0.0001341   -0.0004265   -0.0000000
 C    3.6403736   -2.3625583    0.0000000  0.00   -0.0000711   -0.0009641   -0.0000000
 C    2.8642672   -3.5122188    0.0000000  0.00    0.0013427    0.0002551   -0.0000000
 C    3.7660762    0.0000000    0.0000000  0.00   -0.0008913   -0.0000000   -0.0000000
 C    2.9746586   -1.1325418    0.0000000  0.00    0.0006648    0.0007482   -0.0000000
 C    1.4159074   -5.8758654    0.0000000  0.00   -0.0000649    0.0004808   -0.0000000
 C    0.7121347   -7.0957361    0.0000000  0.00   -0.0001745   -0.0000913   -0.0000000
 C    2.7618985   -8.3865128    0.0000000  0.00    0.0004743    0.0006832   -0.0000000
 C    1.4057074   -8.3228965    0.0000000  0.00    0.0000688    0.0004031   -0.0000000
 C    1.4268670   -3.3585795    0.0000000  0.00   -0.0003280   -0.0002766   -0.0000000
 C    0.7109091   -4.5969665    0.0000000  0.00    0.0001473    0.0001760   -0.0000000
 C    1.5838746   -0.8375846    0.0000000  0.00    0.0000752   -0.0001906   -0.0000000
 C    0.7431256   -2.0134988    0.0000000  0.00   -0.0001770   -0.0005010   -0.0000000
 H    8.8657058   -7.3730177    0.0000000  0.00    0.0005689    0.0011539   -0.0000000
 H    7.5714737   -9.4829605    0.0000000  0.00    0.0003871    0.0005957   -0.0000000
 H    5.1395952   -9.4406069    0.0000000  0.00    0.0007845    0.0010636   -0.0000000
 H    8.9234192   -4.9399237    0.0000000  0.00   -0.0004660   -0.0001142   -0.0000000
 H    9.0028152   -2.5084109    0.0000000  0.00   -0.0003501    0.0008819   -0.0000000
 H    9.0354945    0.0000000    0.0000000  0.00    0.0000427   -0.0000000   -0.0000000
 H    3.2382570   -9.3552083    0.0000000  0.00   -0.0001752   -0.0001439   -0.0000000
 H    0.8668100   -9.2543921    0.0000000  0.00   -0.0006133   -0.0001778   -0.0000000
 C   -7.1206472    6.1071401    0.0000000  0.00   -0.0001765   -0.0001464   -0.0000000
 C   -5.6845984    6.0728538    0.0000000  0.00   -0.0006631   -0.0012444   -0.0000000
 C   -7.7819140    7.3544043    0.0000000  0.00    0.0002537   -0.0008527   -0.0000000
 C   -4.9623398    7.2813483    0.0000000  0.00   -0.0009396   -0.0003985   -0.0000000
 C   -7.0581081    8.5282378    0.0000000  0.00   -0.0011628   -0.0004616   -0.0000000
 C   -5.6688234    8.4992259    0.0000000  0.00   -0.0005314   -0.0006634   -0.0000000
 C   -7.1938518    3.6683986    0.0000000  0.00    0.0001461    0.0004203   -0.0000000
 C   -5.7495726    3.6364822    0.0000000  0.00   -0.0000299   -0.0008823   -0.0000000
 C   -7.8392385    4.9073182    0.0000000  0.00    0.0008294    0.0006073   -0.0000000
 C   -4.9950538    4.8227225    0.0000000  0.00    0.0006831    0.0005937   -0.0000000
 C   -7.2700278    1.2297070    0.0000000  0.00    0.0004704    0.0002315   -0.0000000
 C   -5.8357919    1.2219648    0.0000000  0.00    0.0000718    0.0001389   -0.0000000
 C   -7.9188857    2.4688300    0.0000000  0.00    0.0002073   -0.0001036   -0.0000000
 C   -5.0751014    2.4066365    0.0000000  0.00    0.0004868    0.0003081   -0.0000000
 C   -7.9506482    0.0000000    0.0000000  0.00    0.0007476   -0.0000000   -0.0000000
 C   -5.1574271    0.0000000    0.0000000  0.00    0.0006103   -0.0000000   -0.0000000
 C   -3.5674285    4.7609077    0.0000000  0.00    0.0003627   -0.0003099   -0.0000000
 C   -2.8387719    5.9632409    0.0000000  0.00   -0.0014654   -0.0001184   -0.0000000
 C   -3.5206256    7.2140617    0.0000000  0.00   -0.0001341    0.0004265   -0.0000000
 C   -3.6403736    2.3625583    0.0000000  0.00    0.0000711    0.0009641   -0.0000000
 C   -2.8642672    3.5122188    0.0000000  0.00   -0.0013427   -0.0002551   -0.0000000
 C   -3.7660762    0.0000000    0.0000000  0.00    0.0008913   -0.0000000   -0.0000000
 C   -2.9746586    1.1325418    0.0000000  0.00   -0.0006648   -0.0007482   -0.0000000
 C   -1.4159074    5.8758654    0.0000000  0.00    0.0000649   -0.0004808   -0.0000000
 C   -0.7121347    7.0957361    0.0000000  0.00    0.0001745    0.0000913   -0.0000000
 C   -2.7618985    8.3865128    0.0000000  0.00   -0.0004743   -0.0006832   -0.0000000
 C   -1.4057074    8.3228965    0.0000000  0.00   -0.0000688   -0.0004031   -0.0000000
 C   -1.4268670    3.3585795    0.0000000  0.00    0.0003280    0.0002766   -0.0000000
 C   -0.7109091    4.5969665    0.0000000  0.00   -0.0001473   -0.0001760   -0.0000000
 C   -1.5838746    0.8375846    0.0000000  0.00   -0.0000752    0.0001906   -0.0000000
 C   -0.7431256    2.0134988    0.0000000  0.00    0.0001770    0.0005010   -0.0000000
 H   -8.8657058    7.3730177    0.0000000  0.00   -0.0005689   -0.0011539   -0.0000000
 H   -7.5714737    9.4829605    0.0000000  0.00   -0.0003871   -0.0005957   -0.0000000
 H   -5.1395952    9.4406069    0.0000000  0.00   -0.0007845   -0.0010636   -0.0000000
 H   -8.9234192    4.9399237    0.0000000  0.00    0.0004660    0.0001142   -0.0000000
 H   -9.0028152    2.5084109    0.0000000  0.00    0.0003501   -0.0008819   -0.0000000
 H   -9.0354945    0.0000000    0.0000000  0.00   -0.0000427   -0.0000000   -0.0000000
 H   -3.2382570    9.3552083    0.0000000  0.00    0.0001752    0.0001439   -0.0000000
 H   -0.8668100    9.2543921    0.0000000  0.00    0.0006133    0.0001778   -0.0000000
 C    7.1206472    6.1071401    0.0000000  0.00    0.0001765   -0.0001464   -0.0000000
 C    5.6845984    6.0728538    0.0000000  0.00    0.0006631   -0.0012444   -0.0000000
 C    7.7819140    7.3544043    0.0000000  0.00   -0.0002537   -0.0008527   -0.0000000
 C    4.9623398    7.2813483    0.0000000  0.00    0.0009396   -0.0003985   -0.0000000
 C    7.0581081    8.5282378    0.0000000  0.00    0.0011628   -0.0004616   -0.0000000
 C    5.6688234    8.4992259    0.0000000  0.00    0.0005314   -0.0006634   -0.0000000
 C    7.1938518    3.6683986    0.0000000  0.00   -0.0001461    0.0004203   -0.0000000
 C    5.7495726    3.6364822    0.0000000  0.00    0.0000299   -0.0008823   -0.0000000
 C    7.8392385    4.9073182    0.0000000  0.00   -0.0008294    0.0006073   -0.0000000
 C    4.9950538    4.8227225    0.0000000  0.00   -0.0006831    0.0005937   -0.0000000
 C    7.2700278    1.2297070    0.0000000  0.00   -0.0004704    0.0002315   -0.0000000
 C    5.8357919    1.2219648    0.0000000  0.00   -0.0000718    0.0001389   -0.0000000
 C    7.9188857    2.4688300    0.0000000  0.00   -0.0002073   -0.0001036   -0.0000000
 C    5.0751014    2.4066365    0.0000000  0.00   -0.0004868    0.0003081   -0.0000000
 C    3.5674285    4.7609077    0.0000000  0.00   -0.0003627   -0.0003099   -0.0000000
 C    2.8387719    5.9632409    0.0000000  0.00    0.0014654   -0.0001184   -0.0000000
 C    3.5206256    7.2140617    0.0000000  0.00    0.0001341    0.0004265   -0.0000000
 C    3.6403736    2.3625583    0.0000000  0.00   -0.0000711    0.0009641   -0.0000000
 C    2.8642672    3.5122188    0.0000000  0.00    0.0013427   -0.0002551   -0.0000000
 C    2.9746586    1.1325418    0.0000000  0.00    0.0006648   -0.0007482   -0.0000000
 C    1.4159074    5.8758654    0.0000000  0.00   -0.0000649   -0.0004808   -0.0000000
 C    0.7121347    7.0957361    0.0000000  0.00   -0.0001745    0.0000913   -0.0000000
 C    2.7618985    8.3865128    0.0000000  0.00    0.0004743   -0.0006832   -0.0000000
 C    1.4057074    8.3228965    0.0000000  0.00    0.0000688   -0.0004031   -0.0000000
 C    1.4268670    3.3585795    0.0000000  0.00   -0.0003280    0.0002766   -0.0000000
 C    0.7109091    4.5969665    0.0000000  0.00    0.0001473   -0.0001760   -0.0000000
 C    1.5838746    0.8375846    0.0000000  0.00    0.0000752    0.0001906   -0.0000000
 C    0.7431256    2.0134988    0.0000000  0.00   -0.0001770    0.0005010   -0.0000000
 H    8.8657058    7.3730177    0.0000000  0.00    0.0005689   -0.0011539   -0.0000000
 H    7.5714737    9.4829605    0.0000000  0.00    0.0003871   -0.0005957   -0.0000000
 H    5.1395952    9.4406069    0.0000000  0.00    0.0007845   -0.0010636   -0.0000000
 H    8.9234192    4.9399237    0.0000000  0.00   -0.0004660    0.0001142   -0.0000000
 H    9.0028152    2.5084109    0.0000000  0.00   -0.0003501   -0.0008819   -0.0000000
 H    3.2382570    9.3552083    0.0000000  0.00   -0.0001752    0.0001439   -0.0000000
 H    0.8668100    9.2543921    0.0000000  0.00   -0.0006133    0.0001778   -0.0000000
 C   -7.1206472   -6.1071401    0.0000000  0.00   -0.0001765    0.0001464   -0.0000000
 C   -5.6845984   -6.0728538    0.0000000  0.00   -0.0006631    0.0012444   -0.0000000
 C   -7.7819140   -7.3544043    0.0000000  0.00    0.0002537    0.0008527   -0.0000000
 C   -4.9623398   -7.2813483    0.0000000  0.00   -0.0009396    0.0003985   -0.0000000
 C   -7.0581081   -8.5282378    0.0000000  0.00   -0.0011628    0.0004616   -0.0000000
 C   -5.6688234   -8.4992259    0.0000000  0.00   -0.0005314    0.0006634   -0.0000000
 C   -7.1938518   -3.6683986    0.0000000  0.00    0.0001461   -0.0004203   -0.0000000
 C   -5.7495726   -3.6364822    0.0000000  0.00   -0.0000299    0.0008823   -0.0000000
 C   -7.8392385   -4.9073182    0.0000000  0.00    0.0008294   -0.0006073   -0.0000000
 C   -4.9950538   -4.8227225    0.0000000  0.00    0.0006831   -0.0005937   -0.0000000
 C   -7.2700278   -1.2297070    0.0000000  0.00    0.0004704   -0.0002315   -0.0000000
 C   -5.8357919   -1.2219648    0.0000000  0.00    0.0000718   -0.0001389   -0.0000000
 C   -7.9188857   -2.4688300    0.0000000  0.00    0.0002073    0.0001036   -0.0000000
 C   -5.0751014   -2.4066365    0.0000000  0.00    0.0004868   -0.0003081   -0.0000000
 C   -3.5674285   -4.7609077    0.0000000  0.00    0.0003627    0.0003099   -0.0000000
 C   -2.8387719   -5.9632409    0.0000000  0.00   -0.0014654    0.0001184   -0.0000000
 C   -3.5206256   -7.2140617    0.0000000  0.00   -0.0001341   -0.0004265   -0.0000000
 C   -3.6403736   -2.3625583    0.0000000  0.00    0.0000711   -0.0009641   -0.0000000
 C   -2.8642672   -3.5122188    0.0000000  0.00   -0.0013427    0.0002551   -0.0000000
 C   -2.9746586   -1.1325418    0.0000000  0.00   -0.0006648    0.0007482   -0.0000000
 C   -1.4159074   -5.8758654    0.0000000  0.00    0.0000649    0.0004808   -0.0000000
 C   -0.7121347   -7.0957361    0.0000000  0.00    0.0001745   -0.0000913   -0.0000000
 C   -2.7618985   -8.3865128    0.0000000  0.00   -0.0004743    0.0006832   -0.0000000
 C   -1.4057074   -8.3228965    0.0000000  0.00   -0.0000688    0.0004031   -0.0000000
 C   -1.4268670   -3.3585795    0.0000000  0.00    0.0003280   -0.0002766   -0.0000000
 C   -0.7109091   -4.5969665    0.0000000  0.00   -0.0001473    0.0001760   -0.0000000
 C   -1.5838746   -0.8375846    0.0000000  0.00   -0.0000752   -0.0001906   -0.0000000
 C   -0.7431256   -2.0134988    0.0000000  0.00    0.0001770   -0.0005010   -0.0000000
 H   -8.8657058   -7.3730177    0.0000000  0.00   -0.0005689    0.0011539   -0.0000000
 H   -7.5714737   -9.4829605    0.0000000  0.00   -0.0003871    0.0005957   -0.0000000
 H   -5.1395952   -9.4406069    0.0000000  0.00   -0.0007845    0.0010636   -0.0000000
 H   -8.9234192   -4.9399237    0.0000000  0.00    0.0004660   -0.0001142   -0.0000000
 H   -9.0028152   -2.5084109    0.0000000  0.00    0.0003501    0.0008819   -0.0000000
 H   -3.2382570   -9.3552083    0.0000000  0.00    0.0001752   -0.0001439   -0.0000000
 H   -0.8668100   -9.2543921    0.0000000  0.00    0.0006133   -0.0001778   -0.0000000
