148
 Energy =   -4513.2257624660
 C    7.1165744   -6.0880463    0.0000000  0.00    0.0009338   -0.0004425   -0.0000000
 C    5.6812525   -6.0509588    0.0000000  0.00    0.0010841   -0.0000835   -0.0000000
 C    7.7867476   -7.3318201    0.0000000  0.00   -0.0004403   -0.0008148   -0.0000000
 C    4.9621067   -7.2626464    0.0000000  0.00    0.0005004   -0.0006780   -0.0000000
 C    7.0671653   -8.5021274    0.0000000  0.00    0.0017359    0.0013533   -0.0000000
 C    5.6750014   -8.4711758    0.0000000  0.00    0.0006235    0.0004655   -0.0000000
 C    7.1880394   -3.6596300    0.0000000  0.00    0.0013913    0.0010999   -0.0000000
 C    5.7453320   -3.6244548    0.0000000  0.00    0.0005732   -0.0001771   -0.0000000
 C    7.8385073   -4.8938479    0.0000000  0.00    0.0021424    0.0006946   -0.0000000
 C    4.9907761   -4.8059989    0.0000000  0.00    0.0026120    0.0015045   -0.0000000
 C    7.2761653   -1.2277149    0.0000000  0.00    0.0000833    0.0006733   -0.0000000
 C    5.8397733   -1.2178845    0.0000000  0.00    0.0013419    0.0000587   -0.0000000
 C    7.9241513   -2.4650715    0.0000000  0.00    0.0005828    0.0004114   -0.0000000
 C    5.0731070   -2.3946596    0.0000000  0.00    0.0025782    0.0002748   -0.0000000
 C    7.9637219    0.0000000    0.0000000  0.00   -0.0017076   -0.0000000   -0.0000000
 C    5.1616125    0.0000000    0.0000000  0.00    0.0010553   -0.0000000   -0.0000000
 C    3.5587082   -4.7431826    0.0000000  0.00   -0.0013402   -0.0015774   -0.0000000
 C    2.8338543   -5.9509481    0.0000000  0.00    0.0009339   -0.0005978   -0.0000000
 C    3.5174597   -7.1988927    0.0000000  0.00   -0.0004136   -0.0005200   -0.0000000
 C    3.6362212   -2.3487777    0.0000000  0.00   -0.0001943   -0.0039473   -0.0000000
 C    2.8594336   -3.5017360    0.0000000  0.00    0.0012749    0.0005316   -0.0000000
 C    3.7723343    0.0000000    0.0000000  0.00    0.0021615   -0.0000000   -0.0000000
 C    2.9743440   -1.1230269    0.0000000  0.00    0.0003632    0.0017119   -0.0000000
 C    1.4138267   -5.8637037    0.0000000  0.00    0.0013680    0.0012028   -0.0000000
 C    0.7124482   -7.0853782    0.0000000  0.00   -0.0000443   -0.0022268   -0.0000000
 C    2.7642431   -8.3734724    0.0000000  0.00    0.0007647   -0.0026811   -0.0000000
 C    1.4071312   -8.3104302    0.0000000  0.00   -0.0024023    0.0032248   -0.0000000
 C    1.4186290   -3.3406989    0.0000000  0.00   -0.0001570   -0.0013021   -0.0000000
 C    0.7089293   -4.5841647    0.0000000  0.00   -0.0025770   -0.0009901   -0.0000000
 C    1.5780922   -0.7997456    0.0000000  0.00    0.0000904   -0.0015007   -0.0000000
 C    0.7333103   -2.0041260    0.0000000  0.00    0.0016813   -0.0009724   -0.0000000
 H    8.8758905   -7.3383745    0.0000000  0.00    0.0026847   -0.0013991   -0.0000000
 H    7.5785106   -9.4628787    0.0000000  0.00    0.0019142    0.0003741   -0.0000000
 H    5.1498617   -9.4202387    0.0000000  0.00    0.0028172   -0.0020954   -0.0000000
 H    8.9278671   -4.9276412    0.0000000  0.00    0.0001800   -0.0012940   -0.0000000
 H    9.0101932   -2.5167815    0.0000000  0.00   -0.0009191   -0.0000254   -0.0000000
 H    9.0484864    0.0000000    0.0000000  0.00   -0.0013213   -0.0000000   -0.0000000
 H    3.2428718   -9.3430305    0.0000000  0.00   -0.0004964   -0.0005752   -0.0000000
 H    0.8695121   -9.2429939    0.0000000  0.00    0.0001397   -0.0013206   -0.0000000
 C   -7.1165744    6.0880463    0.0000000  0.00   -0.0009338    0.0004425   -0.0000000
 C   -5.6812525    6.0509588    0.0000000  0.00   -0.0010841    0.0000835   -0.0000000
 C   -7.7867476    7.3318201    0.0000000  0.00    0.0004403    0.0008148   -0.0000000
 C   -4.9621067    7.2626464    0.0000000  0.00   -0.0005004    0.0006780   -0.0000000
 C   -7.0671653    8.5021274    0.0000000  0.00   -0.0017359   -0.0013533   -0.0000000
 C   -5.6750014    8.4711758    0.0000000  0.00   -0.0006235   -0.0004655   -0.0000000
 C   -7.1880394    3.6596300    0.0000000  0.00   -0.0013913   -0.0010999   -0.0000000
 C   -5.7453320    3.6244548    0.0000000  0.00   -0.0005732    0.0001771   -0.0000000
 C   -7.8385073    4.8938479    0.0000000  0.00   -0.0021424   -0.0006946   -0.0000000
 C   -4.9907761    4.8059989    0.0000000  0.00   -0.0026120   -0.0015045   -0.0000000
 C   -7.2761653    1.2277149    0.0000000  0.00   -0.0000833   -0.0006733   -0.0000000
 C   -5.8397733    1.2178845    0.0000000  0.00   -0.0013419   -0.0000587   -0.0000000
 C   -7.9241513    2.4650715    0.0000000  0.00   -0.0005828   -0.0004114   -0.0000000
 C   -5.0731070    2.3946596    0.0000000  0.00   -0.0025782   -0.0002748   -0.0000000
 C   -7.9637219    0.0000000    0.0000000  0.00    0.0017076   -0.0000000   -0.0000000
 C   -5.1616125    0.0000000    0.0000000  0.00   -0.0010553   -0.0000000   -0.0000000
 C   -3.5587082    4.7431826    0.0000000  0.00    0.0013402    0.0015774   -0.0000000
 C   -2.8338543    5.9509481    0.0000000  0.00   -0.0009339    0.0005978   -0.0000000
 C   -3.5174597    7.1988927    0.0000000  0.00    0.0004136    0.0005200   -0.0000000
 C   -3.6362212    2.3487777    0.0000000  0.00    0.0001943    0.0039473   -0.0000000
 C   -2.8594336    3.5017360    0.0000000  0.00   -0.0012749   -0.0005316   -0.0000000
 C   -3.7723343    0.0000000    0.0000000  0.00   -0.0021615   -0.0000000   -0.0000000
 C   -2.9743440    1.1230269    0.0000000  0.00   -0.0003632   -0.0017119   -0.0000000
 C   -1.4138267    5.8637037    0.0000000  0.00   -0.0013680   -0.0012028   -0.0000000
 C   -0.7124482    7.0853782    0.0000000  0.00    0.0000443    0.0022268   -0.0000000
 C   -2.7642431    8.3734724    0.0000000  0.00   -0.0007647    0.0026811   -0.0000000
 C   -1.4071312    8.3104302    0.0000000  0.00    0.0024023   -0.0032248   -0.0000000
 C   -1.4186290    3.3406989    0.0000000  0.00    0.0001570    0.0013021   -0.0000000
 C   -0.7089293    4.5841647    0.0000000  0.00    0.0025770    0.0009901   -0.0000000
 C   -1.5780922    0.7997456    0.0000000  0.00   -0.0000904    0.0015007   -0.0000000
 C   -0.7333103    2.0041260    0.0000000  0.00   -0.0016813    0.0009724   -0.0000000
 H   -8.8758905    7.3383745    0.0000000  0.00   -0.0026847    0.0013991   -0.0000000
 H   -7.5785106    9.4628787    0.0000000  0.00   -0.0019142   -0.0003741   -0.0000000
 H   -5.1498617    9.4202387    0.0000000  0.00   -0.0028172    0.0020954   -0.0000000
 H   -8.9278671    4.9276412    0.0000000  0.00   -0.0001800    0.0012940   -0.0000000
 H   -9.0101932    2.5167815    0.0000000  0.00    0.0009191    0.0000254   -0.0000000
 H   -9.0484864    0.0000000    0.0000000  0.00    0.0013213   -0.0000000   -0.0000000
 H   -3.2428718    9.3430305    0.0000000  0.00    0.0004964    0.0005752   -0.0000000
 H   -0.8695121    9.2429939    0.0000000  0.00   -0.0001397    0.0013206   -0.0000000
 C    7.1165744    6.0880463    0.0000000  0.00    0.0009338    0.0004425   -0.0000000
 C    5.6812525    6.0509588    0.0000000  0.00    0.0010841    0.0000835   -0.0000000
 C    7.7867476    7.3318201    0.0000000  0.00   -0.0004403    0.0008148   -0.0000000
 C    4.9621067    7.2626464    0.0000000  0.00    0.0005004    0.0006780   -0.0000000
 C    7.0671653    8.5021274    0.0000000  0.00    0.0017359   -0.0013533   -0.0000000
 C    5.6750014    8.4711758    0.0000000  0.00    0.0006235   -0.0004655   -0.0000000
 C    7.1880394    3.6596300    0.0000000  0.00    0.0013913   -0.0010999   -0.0000000
 C    5.7453320    3.6244548    0.0000000  0.00    0.0005732    0.0001771   -0.0000000
 C    7.8385073    4.8938479    0.0000000  0.00    0.0021424   -0.0006946   -0.0000000
 C    4.9907761    4.8059989    0.0000000  0.00    0.0026120   -0.0015045   -0.0000000
 C    7.2761653    1.2277149    0.0000000  0.00    0.0000833   -0.0006733   -0.0000000
 C    5.8397733    1.2178845    0.0000000  0.00    0.0013419   -0.0000587   -0.0000000
 C    7.9241513    2.4650715    0.0000000  0.00    0.0005828   -0.0004114   -0.0000000
 C    5.0731070    2.3946596    0.0000000  0.00    0.0025782   -0.0002748   -0.0000000
 C    3.5587082    4.7431826    0.0000000  0.00   -0.0013402    0.0015774   -0.0000000
 C    2.8338543    5.9509481    0.0000000  0.00    0.0009339    0.0005978   -0.0000000
 C    3.5174597    7.1988927    0.0000000  0.00   -0.0004136    0.0005200   -0.0000000
 C    3.6362212    2.3487777    0.0000000  0.00   -0.0001943    0.0039473   -0.0000000
 C    2.8594336    3.5017360    0.0000000  0.00    0.0012749   -0.0005316   -0.0000000
 C    2.9743440    1.1230269    0.0000000  0.00    0.0003632   -0.0017119   -0.0000000
 C    1.4138267    5.8637037    0.0000000  0.00    0.0013680   -0.0012028   -0.0000000
 C    0.7124482    7.0853782    0.0000000  0.00   -0.0000443    0.0022268   -0.0000000
 C    2.7642431    8.3734724    0.0000000  0.00    0.0007647    0.0026811   -0.0000000
 C    1.4071312    8.3104302    0.0000000  0.00   -0.0024023   -0.0032248   -0.0000000
 C    1.4186290    3.3406989    0.0000000  0.00   -0.0001570    0.0013021   -0.0000000
 C    0.7089293    4.5841647    0.0000000  0.00   -0.0025770    0.0009901   -0.0000000
 C    1.5780922    0.7997456    0.0000000  0.00    0.0000904    0.0015007   -0.0000000
 C    0.7333103    2.0041260    0.0000000  0.00    0.0016813    0.0009724   -0.0000000
 H    8.8758905    7.3383745    0.0000000  0.00    0.0026847    0.0013991   -0.0000000
 H    7.5785106    9.4628787    0.0000000  0.00    0.0019142   -0.0003741   -0.0000000
 H    5.1498617    9.4202387    0.0000000  0.00    0.0028172    0.0020954   -0.0000000
 H    8.9278671    4.9276412    0.0000000  0.00    0.0001800    0.0012940   -0.0000000
 H    9.0101932    2.5167815    0.0000000  0.00   -0.0009191    0.0000254   -0.0000000
 H    3.2428718    9.3430305    0.0000000  0.00   -0.0004964    0.0005752   -0.0000000
 H    0.8695121    9.2429939    0.0000000  0.00    0.0001397    0.0013206   -0.0000000
 C   -7.1165744   -6.0880463    0.0000000  0.00   -0.0009338   -0.0004425   -0.0000000
 C   -5.6812525   -6.0509588    0.0000000  0.00   -0.0010841   -0.0000835   -0.0000000
 C   -7.7867476   -7.3318201    0.0000000  0.00    0.0004403   -0.0008148   -0.0000000
 C   -4.9621067   -7.2626464    0.0000000  0.00   -0.0005004   -0.0006780   -0.0000000
 C   -7.0671653   -8.5021274    0.0000000  0.00   -0.0017359    0.0013533   -0.0000000
 C   -5.6750014   -8.4711758    0.0000000  0.00   -0.0006235    0.0004655   -0.0000000
 C   -7.1880394   -3.6596300    0.0000000  0.00   -0.0013913    0.0010999   -0.0000000
 C   -5.7453320   -3.6244548    0.0000000  0.00   -0.0005732   -0.0001771   -0.0000000
 C   -7.8385073   -4.8938479    0.0000000  0.00   -0.0021424    0.0006946   -0.0000000
 C   -4.9907761   -4.8059989    0.0000000  0.00   -0.0026120    0.0015045   -0.0000000
 C   -7.2761653   -1.2277149    0.0000000  0.00   -0.0000833    0.0006733   -0.0000000
 C   -5.8397733   -1.2178845    0.0000000  0.00   -0.0013419    0.0000587   -0.0000000
 C   -7.9241513   -2.4650715    0.0000000  0.00   -0.0005828    0.0004114   -0.0000000
 C   -5.0731070   -2.3946596    0.0000000  0.00   -0.0025782    0.0002748   -0.0000000
 C   -3.5587082   -4.7431826    0.0000000  0.00    0.0013402   -0.0015774   -0.0000000
 C   -2.8338543   -5.9509481    0.0000000  0.00   -0.0009339   -0.0005978   -0.0000000
 C   -3.5174597   -7.1988927    0.0000000  0.00    0.0004136   -0.0005200   -0.0000000
 C   -3.6362212   -2.3487777    0.0000000  0.00    0.0001943   -0.0039473   -0.0000000
 C   -2.8594336   -3.5017360    0.0000000  0.00   -0.0012749    0.0005316   -0.0000000
 C   -2.9743440   -1.1230269    0.0000000  0.00   -0.0003632    0.0017119   -0.0000000
 C   -1.4138267   -5.8637037    0.0000000  0.00   -0.0013680    0.0012028   -0.0000000
 C   -0.7124482   -7.0853782    0.0000000  0.00    0.0000443   -0.0022268   -0.0000000
 C   -2.7642431   -8.3734724    0.0000000  0.00   -0.0007647   -0.0026811   -0.0000000
 C   -1.4071312   -8.3104302    0.0000000  0.00    0.0024023    0.0032248   -0.0000000
 C   -1.4186290   -3.3406989    0.0000000  0.00    0.0001570   -0.0013021   -0.0000000
 C   -0.7089293   -4.5841647    0.0000000  0.00    0.0025770   -0.0009901   -0.0000000
 C   -1.5780922   -0.7997456    0.0000000  0.00   -0.0000904   -0.0015007   -0.0000000
 C   -0.7333103   -2.0041260    0.0000000  0.00   -0.0016813   -0.0009724   -0.0000000
 H   -8.8758905   -7.3383745    0.0000000  0.00   -0.0026847   -0.0013991   -0.0000000
 H   -7.5785106   -9.4628787    0.0000000  0.00   -0.0019142    0.0003741   -0.0000000
 H   -5.1498617   -9.4202387    0.0000000  0.00   -0.0028172   -0.0020954   -0.0000000
 H   -8.9278671   -4.9276412    0.0000000  0.00   -0.0001800   -0.0012940   -0.0000000
 H   -9.0101932   -2.5167815    0.0000000  0.00    0.0009191   -0.0000254   -0.0000000
 H   -3.2428718   -9.3430305    0.0000000  0.00    0.0004964   -0.0005752   -0.0000000
 H   -0.8695121   -9.2429939    0.0000000  0.00   -0.0001397   -0.0013206   -0.0000000
