148
 Energy =   -4513.0464822240
 C    7.1162005   -6.0952528    0.0000000  0.00    0.0003255   -0.0002177   -0.0000000
 C    5.6826105   -6.0593167    0.0000000  0.00    0.0002033    0.0014734   -0.0000000
 C    7.7833033   -7.3406357    0.0000000  0.00    0.0010182    0.0005573   -0.0000000
 C    4.9618893   -7.2687326    0.0000000  0.00    0.0012974    0.0001136   -0.0000000
 C    7.0622335   -8.5103739    0.0000000  0.00    0.0010384   -0.0004669   -0.0000000
 C    5.6701662   -8.4802044    0.0000000  0.00    0.0002049    0.0009040   -0.0000000
 C    7.1946920   -3.6638104    0.0000000  0.00   -0.0005052   -0.0007653   -0.0000000
 C    5.7521881   -3.6319366    0.0000000  0.00    0.0003920    0.0009338   -0.0000000
 C    7.8392711   -4.9024061    0.0000000  0.00    0.0006598    0.0003414   -0.0000000
 C    4.9986568   -4.8127572    0.0000000  0.00    0.0010483   -0.0000441   -0.0000000
 C    7.2831798   -1.2294942    0.0000000  0.00   -0.0003864   -0.0011260   -0.0000000
 C    5.8447771   -1.2220249    0.0000000  0.00    0.0004027    0.0014104   -0.0000000
 C    7.9273159   -2.4693950    0.0000000  0.00    0.0002473    0.0008620   -0.0000000
 C    5.0801856   -2.3996410    0.0000000  0.00   -0.0000803   -0.0014671   -0.0000000
 C    7.9638162    0.0000000    0.0000000  0.00   -0.0005689   -0.0000000   -0.0000000
 C    5.1637834    0.0000000    0.0000000  0.00   -0.0006064   -0.0000000   -0.0000000
 C    3.5649727   -4.7506589    0.0000000  0.00    0.0006541   -0.0001295   -0.0000000
 C    2.8371069   -5.9512807    0.0000000  0.00   -0.0004444   -0.0001196   -0.0000000
 C    3.5175438   -7.2069746    0.0000000  0.00    0.0008140    0.0002866   -0.0000000
 C    3.6439117   -2.3545524    0.0000000  0.00    0.0004684   -0.0003430   -0.0000000
 C    2.8655145   -3.5055366    0.0000000  0.00    0.0001853    0.0001362   -0.0000000
 C    3.7728082    0.0000000    0.0000000  0.00    0.0001192   -0.0000000   -0.0000000
 C    2.9802757   -1.1302829    0.0000000  0.00   -0.0002979    0.0007407   -0.0000000
 C    1.4156651   -5.8623720    0.0000000  0.00    0.0017246    0.0000852   -0.0000000
 C    0.7124513   -7.0866996    0.0000000  0.00   -0.0012391    0.0005467   -0.0000000
 C    2.7601930   -8.3745174    0.0000000  0.00    0.0004878    0.0002287   -0.0000000
 C    1.4018464   -8.3097435    0.0000000  0.00    0.0006840   -0.0005295   -0.0000000
 C    1.4267714   -3.3514846    0.0000000  0.00    0.0016119   -0.0006523   -0.0000000
 C    0.7139320   -4.5872639    0.0000000  0.00   -0.0014509    0.0004809   -0.0000000
 C    1.5830077   -0.8320677    0.0000000  0.00    0.0001906   -0.0003828   -0.0000000
 C    0.7445034   -2.0041308    0.0000000  0.00   -0.0004748    0.0001673   -0.0000000
 H    8.8740968   -7.3486382    0.0000000  0.00    0.0010254    0.0000767   -0.0000000
 H    7.5735545   -9.4721239    0.0000000  0.00    0.0003315   -0.0004819   -0.0000000
 H    5.1405238   -9.4309943    0.0000000  0.00   -0.0001792    0.0012941   -0.0000000
 H    8.9300781   -4.9409651    0.0000000  0.00   -0.0004175    0.0001662   -0.0000000
 H    9.0130427   -2.5215862    0.0000000  0.00   -0.0004965    0.0003280   -0.0000000
 H    9.0481632    0.0000000    0.0000000  0.00    0.0001506   -0.0000000   -0.0000000
 H    3.2222533   -9.3617687    0.0000000  0.00    0.0007489   -0.0001031   -0.0000000
 H    0.8728124   -9.2640328    0.0000000  0.00   -0.0001917    0.0003881   -0.0000000
 C   -7.1162005    6.0952528    0.0000000  0.00   -0.0003255    0.0002177   -0.0000000
 C   -5.6826105    6.0593167    0.0000000  0.00   -0.0002033   -0.0014734   -0.0000000
 C   -7.7833033    7.3406357    0.0000000  0.00   -0.0010182   -0.0005573   -0.0000000
 C   -4.9618893    7.2687326    0.0000000  0.00   -0.0012974   -0.0001136   -0.0000000
 C   -7.0622335    8.5103739    0.0000000  0.00   -0.0010384    0.0004669   -0.0000000
 C   -5.6701662    8.4802044    0.0000000  0.00   -0.0002049   -0.0009040   -0.0000000
 C   -7.1946920    3.6638104    0.0000000  0.00    0.0005052    0.0007653   -0.0000000
 C   -5.7521881    3.6319366    0.0000000  0.00   -0.0003920   -0.0009338   -0.0000000
 C   -7.8392711    4.9024061    0.0000000  0.00   -0.0006598   -0.0003414   -0.0000000
 C   -4.9986568    4.8127572    0.0000000  0.00   -0.0010483    0.0000441   -0.0000000
 C   -7.2831798    1.2294942    0.0000000  0.00    0.0003864    0.0011260   -0.0000000
 C   -5.8447771    1.2220249    0.0000000  0.00   -0.0004027   -0.0014104   -0.0000000
 C   -7.9273159    2.4693950    0.0000000  0.00   -0.0002473   -0.0008620   -0.0000000
 C   -5.0801856    2.3996410    0.0000000  0.00    0.0000803    0.0014671   -0.0000000
 C   -7.9638162    0.0000000    0.0000000  0.00    0.0005689   -0.0000000   -0.0000000
 C   -5.1637834    0.0000000    0.0000000  0.00    0.0006064   -0.0000000   -0.0000000
 C   -3.5649727    4.7506589    0.0000000  0.00   -0.0006541    0.0001295   -0.0000000
 C   -2.8371069    5.9512807    0.0000000  0.00    0.0004444    0.0001196   -0.0000000
 C   -3.5175438    7.2069746    0.0000000  0.00   -0.0008140   -0.0002866   -0.0000000
 C   -3.6439117    2.3545524    0.0000000  0.00   -0.0004684    0.0003430   -0.0000000
 C   -2.8655145    3.5055366    0.0000000  0.00   -0.0001853   -0.0001362   -0.0000000
 C   -3.7728082    0.0000000    0.0000000  0.00   -0.0001192   -0.0000000   -0.0000000
 C   -2.9802757    1.1302829    0.0000000  0.00    0.0002979   -0.0007407   -0.0000000
 C   -1.4156651    5.8623720    0.0000000  0.00   -0.0017246   -0.0000852   -0.0000000
 C   -0.7124513    7.0866996    0.0000000  0.00    0.0012391   -0.0005467   -0.0000000
 C   -2.7601930    8.3745174    0.0000000  0.00   -0.0004878   -0.0002287   -0.0000000
 C   -1.4018464    8.3097435    0.0000000  0.00   -0.0006840    0.0005295   -0.0000000
 C   -1.4267714    3.3514846    0.0000000  0.00   -0.0016119    0.0006523   -0.0000000
 C   -0.7139320    4.5872639    0.0000000  0.00    0.0014509   -0.0004809   -0.0000000
 C   -1.5830077    0.8320677    0.0000000  0.00   -0.0001906    0.0003828   -0.0000000
 C   -0.7445034    2.0041308    0.0000000  0.00    0.0004748   -0.0001673   -0.0000000
 H   -8.8740968    7.3486382    0.0000000  0.00   -0.0010254   -0.0000767   -0.0000000
 H   -7.5735545    9.4721239    0.0000000  0.00   -0.0003315    0.0004819   -0.0000000
 H   -5.1405238    9.4309943    0.0000000  0.00    0.0001792   -0.0012941   -0.0000000
 H   -8.9300781    4.9409651    0.0000000  0.00    0.0004175   -0.0001662   -0.0000000
 H   -9.0130427    2.5215862    0.0000000  0.00    0.0004965   -0.0003280   -0.0000000
 H   -9.0481632    0.0000000    0.0000000  0.00   -0.0001506   -0.0000000   -0.0000000
 H   -3.2222533    9.3617687    0.0000000  0.00   -0.0007489    0.0001031   -0.0000000
 H   -0.8728124    9.2640328    0.0000000  0.00    0.0001917   -0.0003881   -0.0000000
 C    7.1162005    6.0952528    0.0000000  0.00    0.0003255    0.0002177   -0.0000000
 C    5.6826105    6.0593167    0.0000000  0.00    0.0002033   -0.0014734   -0.0000000
 C    7.7833033    7.3406357    0.0000000  0.00    0.0010182   -0.0005573   -0.0000000
 C    4.9618893    7.2687326    0.0000000  0.00    0.0012974   -0.0001136   -0.0000000
 C    7.0622335    8.5103739    0.0000000  0.00    0.0010384    0.0004669   -0.0000000
 C    5.6701662    8.4802044    0.0000000  0.00    0.0002049   -0.0009040   -0.0000000
 C    7.1946920    3.6638104    0.0000000  0.00   -0.0005052    0.0007653   -0.0000000
 C    5.7521881    3.6319366    0.0000000  0.00    0.0003920   -0.0009338   -0.0000000
 C    7.8392711    4.9024061    0.0000000  0.00    0.0006598   -0.0003414   -0.0000000
 C    4.9986568    4.8127572    0.0000000  0.00    0.0010483    0.0000441   -0.0000000
 C    7.2831798    1.2294942    0.0000000  0.00   -0.0003864    0.0011260   -0.0000000
 C    5.8447771    1.2220249    0.0000000  0.00    0.0004027   -0.0014104   -0.0000000
 C    7.9273159    2.4693950    0.0000000  0.00    0.0002473   -0.0008620   -0.0000000
 C    5.0801856    2.3996410    0.0000000  0.00   -0.0000803    0.0014671   -0.0000000
 C    3.5649727    4.7506589    0.0000000  0.00    0.0006541    0.0001295   -0.0000000
 C    2.8371069    5.9512807    0.0000000  0.00   -0.0004444    0.0001196   -0.0000000
 C    3.5175438    7.2069746    0.0000000  0.00    0.0008140   -0.0002866   -0.0000000
 C    3.6439117    2.3545524    0.0000000  0.00    0.0004684    0.0003430   -0.0000000
 C    2.8655145    3.5055366    0.0000000  0.00    0.0001853   -0.0001362   -0.0000000
 C    2.9802757    1.1302829    0.0000000  0.00   -0.0002979   -0.0007407   -0.0000000
 C    1.4156651    5.8623720    0.0000000  0.00    0.0017246   -0.0000852   -0.0000000
 C    0.7124513    7.0866996    0.0000000  0.00   -0.0012391   -0.0005467   -0.0000000
 C    2.7601930    8.3745174    0.0000000  0.00    0.0004878   -0.0002287   -0.0000000
 C    1.4018464    8.3097435    0.0000000  0.00    0.0006840    0.0005295   -0.0000000
 C    1.4267714    3.3514846    0.0000000  0.00    0.0016119    0.0006523   -0.0000000
 C    0.7139320    4.5872639    0.0000000  0.00   -0.0014509   -0.0004809   -0.0000000
 C    1.5830077    0.8320677    0.0000000  0.00    0.0001906    0.0003828   -0.0000000
 C    0.7445034    2.0041308    0.0000000  0.00   -0.0004748   -0.0001673   -0.0000000
 H    8.8740968    7.3486382    0.0000000  0.00    0.0010254   -0.0000767   -0.0000000
 H    7.5735545    9.4721239    0.0000000  0.00    0.0003315    0.0004819   -0.0000000
 H    5.1405238    9.4309943    0.0000000  0.00   -0.0001792   -0.0012941   -0.0000000
 H    8.9300781    4.9409651    0.0000000  0.00   -0.0004175   -0.0001662   -0.0000000
 H    9.0130427    2.5215862    0.0000000  0.00   -0.0004965   -0.0003280   -0.0000000
 H    3.2222533    9.3617687    0.0000000  0.00    0.0007489    0.0001031   -0.0000000
 H    0.8728124    9.2640328    0.0000000  0.00   -0.0001917   -0.0003881   -0.0000000
 C   -7.1162005   -6.0952528    0.0000000  0.00   -0.0003255   -0.0002177   -0.0000000
 C   -5.6826105   -6.0593167    0.0000000  0.00   -0.0002033    0.0014734   -0.0000000
 C   -7.7833033   -7.3406357    0.0000000  0.00   -0.0010182    0.0005573   -0.0000000
 C   -4.9618893   -7.2687326    0.0000000  0.00   -0.0012974    0.0001136   -0.0000000
 C   -7.0622335   -8.5103739    0.0000000  0.00   -0.0010384   -0.0004669   -0.0000000
 C   -5.6701662   -8.4802044    0.0000000  0.00   -0.0002049    0.0009040   -0.0000000
 C   -7.1946920   -3.6638104    0.0000000  0.00    0.0005052   -0.0007653   -0.0000000
 C   -5.7521881   -3.6319366    0.0000000  0.00   -0.0003920    0.0009338   -0.0000000
 C   -7.8392711   -4.9024061    0.0000000  0.00   -0.0006598    0.0003414   -0.0000000
 C   -4.9986568   -4.8127572    0.0000000  0.00   -0.0010483   -0.0000441   -0.0000000
 C   -7.2831798   -1.2294942    0.0000000  0.00    0.0003864   -0.0011260   -0.0000000
 C   -5.8447771   -1.2220249    0.0000000  0.00   -0.0004027    0.0014104   -0.0000000
 C   -7.9273159   -2.4693950    0.0000000  0.00   -0.0002473    0.0008620   -0.0000000
 C   -5.0801856   -2.3996410    0.0000000  0.00    0.0000803   -0.0014671   -0.0000000
 C   -3.5649727   -4.7506589    0.0000000  0.00   -0.0006541   -0.0001295   -0.0000000
 C   -2.8371069   -5.9512807    0.0000000  0.00    0.0004444   -0.0001196   -0.0000000
 C   -3.5175438   -7.2069746    0.0000000  0.00   -0.0008140    0.0002866   -0.0000000
 C   -3.6439117   -2.3545524    0.0000000  0.00   -0.0004684   -0.0003430   -0.0000000
 C   -2.8655145   -3.5055366    0.0000000  0.00   -0.0001853    0.0001362   -0.0000000
 C   -2.9802757   -1.1302829    0.0000000  0.00    0.0002979    0.0007407   -0.0000000
 C   -1.4156651   -5.8623720    0.0000000  0.00   -0.0017246    0.0000852   -0.0000000
 C   -0.7124513   -7.0866996    0.0000000  0.00    0.0012391    0.0005467   -0.0000000
 C   -2.7601930   -8.3745174    0.0000000  0.00   -0.0004878    0.0002287   -0.0000000
 C   -1.4018464   -8.3097435    0.0000000  0.00   -0.0006840   -0.0005295   -0.0000000
 C   -1.4267714   -3.3514846    0.0000000  0.00   -0.0016119   -0.0006523   -0.0000000
 C   -0.7139320   -4.5872639    0.0000000  0.00    0.0014509    0.0004809   -0.0000000
 C   -1.5830077   -0.8320677    0.0000000  0.00   -0.0001906   -0.0003828   -0.0000000
 C   -0.7445034   -2.0041308    0.0000000  0.00    0.0004748    0.0001673   -0.0000000
 H   -8.8740968   -7.3486382    0.0000000  0.00   -0.0010254    0.0000767   -0.0000000
 H   -7.5735545   -9.4721239    0.0000000  0.00   -0.0003315   -0.0004819   -0.0000000
 H   -5.1405238   -9.4309943    0.0000000  0.00    0.0001792    0.0012941   -0.0000000
 H   -8.9300781   -4.9409651    0.0000000  0.00    0.0004175    0.0001662   -0.0000000
 H   -9.0130427   -2.5215862    0.0000000  0.00    0.0004965    0.0003280   -0.0000000
 H   -3.2222533   -9.3617687    0.0000000  0.00   -0.0007489   -0.0001031   -0.0000000
 H   -0.8728124   -9.2640328    0.0000000  0.00    0.0001917    0.0003881   -0.0000000
