148
 Energy =   -4513.3872986930
 C    7.1174482   -6.0996080    0.0000000  0.00    0.0000107    0.0001940   -0.0000000
 C    5.6845332   -6.0582617    0.0000000  0.00   -0.0004007    0.0021893   -0.0000000
 C    7.7763306   -7.3477935    0.0000000  0.00   -0.0021993    0.0005895   -0.0000000
 C    4.9604052   -7.2638149    0.0000000  0.00   -0.0008345   -0.0001833   -0.0000000
 C    7.0509026   -8.5179230    0.0000000  0.00   -0.0014208    0.0012419   -0.0000000
 C    5.6585534   -8.4799239    0.0000000  0.00   -0.0004093    0.0002214   -0.0000000
 C    7.2067597   -3.6643421    0.0000000  0.00   -0.0009279    0.0004721   -0.0000000
 C    5.7620558   -3.6289540    0.0000000  0.00   -0.0004122    0.0000150   -0.0000000
 C    7.8424935   -4.9035465    0.0000000  0.00    0.0004734    0.0007515   -0.0000000
 C    5.0023231   -4.8045896    0.0000000  0.00   -0.0020997   -0.0010442   -0.0000000
 C    7.3100532   -1.2266846    0.0000000  0.00   -0.0009877   -0.0008710   -0.0000000
 C    5.8722045   -1.2178338    0.0000000  0.00   -0.0010675   -0.0007467   -0.0000000
 C    7.9430863   -2.4709297    0.0000000  0.00   -0.0005146    0.0000082   -0.0000000
 C    5.0938219   -2.3942105    0.0000000  0.00    0.0001861    0.0014844   -0.0000000
 C    7.9933139    0.0000000    0.0000000  0.00    0.0006926   -0.0000000   -0.0000000
 C    5.1918763    0.0000000    0.0000000  0.00   -0.0009511   -0.0000000   -0.0000000
 C    3.5653679   -4.7304990    0.0000000  0.00    0.0007308    0.0007729   -0.0000000
 C    2.8361943   -5.9406301    0.0000000  0.00   -0.0024024   -0.0008575   -0.0000000
 C    3.5137222   -7.1890338    0.0000000  0.00    0.0005745    0.0001085   -0.0000000
 C    3.6555097   -2.3413196    0.0000000  0.00    0.0000781   -0.0009619   -0.0000000
 C    2.8721031   -3.4936852    0.0000000  0.00   -0.0002317    0.0008168   -0.0000000
 C    3.8014606    0.0000000    0.0000000  0.00    0.0003281   -0.0000000   -0.0000000
 C    2.9960062   -1.1133485    0.0000000  0.00    0.0006753    0.0011414   -0.0000000
 C    1.4178780   -5.8473119    0.0000000  0.00   -0.0006541    0.0005516   -0.0000000
 C    0.7145030   -7.0668218    0.0000000  0.00    0.0002725   -0.0002746   -0.0000000
 C    2.7587252   -8.3597955    0.0000000  0.00   -0.0015064    0.0009846   -0.0000000
 C    1.4010334   -8.2920990    0.0000000  0.00    0.0009453    0.0000472   -0.0000000
 C    1.4169187   -3.3225104    0.0000000  0.00    0.0004615   -0.0004866   -0.0000000
 C    0.7127574   -4.5637582    0.0000000  0.00    0.0012548    0.0000249   -0.0000000
 C    1.5798108   -0.7583616    0.0000000  0.00    0.0000640    0.0001604   -0.0000000
 C    0.7253448   -1.9926981    0.0000000  0.00    0.0004928    0.0000491   -0.0000000
 H    8.8602307   -7.3675799    0.0000000  0.00   -0.0005620   -0.0006715   -0.0000000
 H    7.5593441   -9.4751029    0.0000000  0.00   -0.0010936    0.0005466   -0.0000000
 H    5.1258780   -9.4192221    0.0000000  0.00   -0.0005968   -0.0020010   -0.0000000
 H    8.9266037   -4.9431354    0.0000000  0.00   -0.0002135   -0.0002332   -0.0000000
 H    9.0264365   -2.5236260    0.0000000  0.00   -0.0001675    0.0007590   -0.0000000
 H    9.0778070    0.0000000    0.0000000  0.00   -0.0029385   -0.0000000   -0.0000000
 H    3.2327217   -9.3293766    0.0000000  0.00    0.0008475   -0.0001702   -0.0000000
 H    0.8613017   -9.2229058    0.0000000  0.00   -0.0002537   -0.0004610   -0.0000000
 C   -7.1174482    6.0996080    0.0000000  0.00   -0.0000107   -0.0001940   -0.0000000
 C   -5.6845332    6.0582617    0.0000000  0.00    0.0004007   -0.0021893   -0.0000000
 C   -7.7763306    7.3477935    0.0000000  0.00    0.0021993   -0.0005895   -0.0000000
 C   -4.9604052    7.2638149    0.0000000  0.00    0.0008345    0.0001833   -0.0000000
 C   -7.0509026    8.5179230    0.0000000  0.00    0.0014208   -0.0012419   -0.0000000
 C   -5.6585534    8.4799239    0.0000000  0.00    0.0004093   -0.0002214   -0.0000000
 C   -7.2067597    3.6643421    0.0000000  0.00    0.0009279   -0.0004721   -0.0000000
 C   -5.7620558    3.6289540    0.0000000  0.00    0.0004122   -0.0000150   -0.0000000
 C   -7.8424935    4.9035465    0.0000000  0.00   -0.0004734   -0.0007515   -0.0000000
 C   -5.0023231    4.8045896    0.0000000  0.00    0.0020997    0.0010442   -0.0000000
 C   -7.3100532    1.2266846    0.0000000  0.00    0.0009877    0.0008710   -0.0000000
 C   -5.8722045    1.2178338    0.0000000  0.00    0.0010675    0.0007467   -0.0000000
 C   -7.9430863    2.4709297    0.0000000  0.00    0.0005146   -0.0000082   -0.0000000
 C   -5.0938219    2.3942105    0.0000000  0.00   -0.0001861   -0.0014844   -0.0000000
 C   -7.9933139    0.0000000    0.0000000  0.00   -0.0006926   -0.0000000   -0.0000000
 C   -5.1918763    0.0000000    0.0000000  0.00    0.0009511   -0.0000000   -0.0000000
 C   -3.5653679    4.7304990    0.0000000  0.00   -0.0007308   -0.0007729   -0.0000000
 C   -2.8361943    5.9406301    0.0000000  0.00    0.0024024    0.0008575   -0.0000000
 C   -3.5137222    7.1890338    0.0000000  0.00   -0.0005745   -0.0001085   -0.0000000
 C   -3.6555097    2.3413196    0.0000000  0.00   -0.0000781    0.0009619   -0.0000000
 C   -2.8721031    3.4936852    0.0000000  0.00    0.0002317   -0.0008168   -0.0000000
 C   -3.8014606    0.0000000    0.0000000  0.00   -0.0003281   -0.0000000   -0.0000000
 C   -2.9960062    1.1133485    0.0000000  0.00   -0.0006753   -0.0011414   -0.0000000
 C   -1.4178780    5.8473119    0.0000000  0.00    0.0006541   -0.0005516   -0.0000000
 C   -0.7145030    7.0668218    0.0000000  0.00   -0.0002725    0.0002746   -0.0000000
 C   -2.7587252    8.3597955    0.0000000  0.00    0.0015064   -0.0009846   -0.0000000
 C   -1.4010334    8.2920990    0.0000000  0.00   -0.0009453   -0.0000472   -0.0000000
 C   -1.4169187    3.3225104    0.0000000  0.00   -0.0004615    0.0004866   -0.0000000
 C   -0.7127574    4.5637582    0.0000000  0.00   -0.0012548   -0.0000249   -0.0000000
 C   -1.5798108    0.7583616    0.0000000  0.00   -0.0000640   -0.0001604   -0.0000000
 C   -0.7253448    1.9926981    0.0000000  0.00   -0.0004928   -0.0000491   -0.0000000
 H   -8.8602307    7.3675799    0.0000000  0.00    0.0005620    0.0006715   -0.0000000
 H   -7.5593441    9.4751029    0.0000000  0.00    0.0010936   -0.0005466   -0.0000000
 H   -5.1258780    9.4192221    0.0000000  0.00    0.0005968    0.0020010   -0.0000000
 H   -8.9266037    4.9431354    0.0000000  0.00    0.0002135    0.0002332   -0.0000000
 H   -9.0264365    2.5236260    0.0000000  0.00    0.0001675   -0.0007590   -0.0000000
 H   -9.0778070    0.0000000    0.0000000  0.00    0.0029385   -0.0000000   -0.0000000
 H   -3.2327217    9.3293766    0.0000000  0.00   -0.0008475    0.0001702   -0.0000000
 H   -0.8613017    9.2229058    0.0000000  0.00    0.0002537    0.0004610   -0.0000000
 C    7.1174482    6.0996080    0.0000000  0.00    0.0000107   -0.0001940   -0.0000000
 C    5.6845332    6.0582617    0.0000000  0.00   -0.0004007   -0.0021893   -0.0000000
 C    7.7763306    7.3477935    0.0000000  0.00   -0.0021993   -0.0005895   -0.0000000
 C    4.9604052    7.2638149    0.0000000  0.00   -0.0008345    0.0001833   -0.0000000
 C    7.0509026    8.5179230    0.0000000  0.00   -0.0014208   -0.0012419   -0.0000000
 C    5.6585534    8.4799239    0.0000000  0.00   -0.0004093   -0.0002214   -0.0000000
 C    7.2067597    3.6643421    0.0000000  0.00   -0.0009279   -0.0004721   -0.0000000
 C    5.7620558    3.6289540    0.0000000  0.00   -0.0004122   -0.0000150   -0.0000000
 C    7.8424935    4.9035465    0.0000000  0.00    0.0004734   -0.0007515   -0.0000000
 C    5.0023231    4.8045896    0.0000000  0.00   -0.0020997    0.0010442   -0.0000000
 C    7.3100532    1.2266846    0.0000000  0.00   -0.0009877    0.0008710   -0.0000000
 C    5.8722045    1.2178338    0.0000000  0.00   -0.0010675    0.0007467   -0.0000000
 C    7.9430863    2.4709297    0.0000000  0.00   -0.0005146   -0.0000082   -0.0000000
 C    5.0938219    2.3942105    0.0000000  0.00    0.0001861   -0.0014844   -0.0000000
 C    3.5653679    4.7304990    0.0000000  0.00    0.0007308   -0.0007729   -0.0000000
 C    2.8361943    5.9406301    0.0000000  0.00   -0.0024024    0.0008575   -0.0000000
 C    3.5137222    7.1890338    0.0000000  0.00    0.0005745   -0.0001085   -0.0000000
 C    3.6555097    2.3413196    0.0000000  0.00    0.0000781    0.0009619   -0.0000000
 C    2.8721031    3.4936852    0.0000000  0.00   -0.0002317   -0.0008168   -0.0000000
 C    2.9960062    1.1133485    0.0000000  0.00    0.0006753   -0.0011414   -0.0000000
 C    1.4178780    5.8473119    0.0000000  0.00   -0.0006541   -0.0005516   -0.0000000
 C    0.7145030    7.0668218    0.0000000  0.00    0.0002725    0.0002746   -0.0000000
 C    2.7587252    8.3597955    0.0000000  0.00   -0.0015064   -0.0009846   -0.0000000
 C    1.4010334    8.2920990    0.0000000  0.00    0.0009453   -0.0000472   -0.0000000
 C    1.4169187    3.3225104    0.0000000  0.00    0.0004615    0.0004866   -0.0000000
 C    0.7127574    4.5637582    0.0000000  0.00    0.0012548   -0.0000249   -0.0000000
 C    1.5798108    0.7583616    0.0000000  0.00    0.0000640   -0.0001604   -0.0000000
 C    0.7253448    1.9926981    0.0000000  0.00    0.0004928   -0.0000491   -0.0000000
 H    8.8602307    7.3675799    0.0000000  0.00   -0.0005620    0.0006715   -0.0000000
 H    7.5593441    9.4751029    0.0000000  0.00   -0.0010936   -0.0005466   -0.0000000
 H    5.1258780    9.4192221    0.0000000  0.00   -0.0005968    0.0020010   -0.0000000
 H    8.9266037    4.9431354    0.0000000  0.00   -0.0002135    0.0002332   -0.0000000
 H    9.0264365    2.5236260    0.0000000  0.00   -0.0001675   -0.0007590   -0.0000000
 H    3.2327217    9.3293766    0.0000000  0.00    0.0008475    0.0001702   -0.0000000
 H    0.8613017    9.2229058    0.0000000  0.00   -0.0002537    0.0004610   -0.0000000
 C   -7.1174482   -6.0996080    0.0000000  0.00   -0.0000107    0.0001940   -0.0000000
 C   -5.6845332   -6.0582617    0.0000000  0.00    0.0004007    0.0021893   -0.0000000
 C   -7.7763306   -7.3477935    0.0000000  0.00    0.0021993    0.0005895   -0.0000000
 C   -4.9604052   -7.2638149    0.0000000  0.00    0.0008345   -0.0001833   -0.0000000
 C   -7.0509026   -8.5179230    0.0000000  0.00    0.0014208    0.0012419   -0.0000000
 C   -5.6585534   -8.4799239    0.0000000  0.00    0.0004093    0.0002214   -0.0000000
 C   -7.2067597   -3.6643421    0.0000000  0.00    0.0009279    0.0004721   -0.0000000
 C   -5.7620558   -3.6289540    0.0000000  0.00    0.0004122    0.0000150   -0.0000000
 C   -7.8424935   -4.9035465    0.0000000  0.00   -0.0004734    0.0007515   -0.0000000
 C   -5.0023231   -4.8045896    0.0000000  0.00    0.0020997   -0.0010442   -0.0000000
 C   -7.3100532   -1.2266846    0.0000000  0.00    0.0009877   -0.0008710   -0.0000000
 C   -5.8722045   -1.2178338    0.0000000  0.00    0.0010675   -0.0007467   -0.0000000
 C   -7.9430863   -2.4709297    0.0000000  0.00    0.0005146    0.0000082   -0.0000000
 C   -5.0938219   -2.3942105    0.0000000  0.00   -0.0001861    0.0014844   -0.0000000
 C   -3.5653679   -4.7304990    0.0000000  0.00   -0.0007308    0.0007729   -0.0000000
 C   -2.8361943   -5.9406301    0.0000000  0.00    0.0024024   -0.0008575   -0.0000000
 C   -3.5137222   -7.1890338    0.0000000  0.00   -0.0005745    0.0001085   -0.0000000
 C   -3.6555097   -2.3413196    0.0000000  0.00   -0.0000781   -0.0009619   -0.0000000
 C   -2.8721031   -3.4936852    0.0000000  0.00    0.0002317    0.0008168   -0.0000000
 C   -2.9960062   -1.1133485    0.0000000  0.00   -0.0006753    0.0011414   -0.0000000
 C   -1.4178780   -5.8473119    0.0000000  0.00    0.0006541    0.0005516   -0.0000000
 C   -0.7145030   -7.0668218    0.0000000  0.00   -0.0002725   -0.0002746   -0.0000000
 C   -2.7587252   -8.3597955    0.0000000  0.00    0.0015064    0.0009846   -0.0000000
 C   -1.4010334   -8.2920990    0.0000000  0.00   -0.0009453    0.0000472   -0.0000000
 C   -1.4169187   -3.3225104    0.0000000  0.00   -0.0004615   -0.0004866   -0.0000000
 C   -0.7127574   -4.5637582    0.0000000  0.00   -0.0012548    0.0000249   -0.0000000
 C   -1.5798108   -0.7583616    0.0000000  0.00   -0.0000640    0.0001604   -0.0000000
 C   -0.7253448   -1.9926981    0.0000000  0.00   -0.0004928    0.0000491   -0.0000000
 H   -8.8602307   -7.3675799    0.0000000  0.00    0.0005620   -0.0006715   -0.0000000
 H   -7.5593441   -9.4751029    0.0000000  0.00    0.0010936    0.0005466   -0.0000000
 H   -5.1258780   -9.4192221    0.0000000  0.00    0.0005968   -0.0020010   -0.0000000
 H   -8.9266037   -4.9431354    0.0000000  0.00    0.0002135   -0.0002332   -0.0000000
 H   -9.0264365   -2.5236260    0.0000000  0.00    0.0001675    0.0007590   -0.0000000
 H   -3.2327217   -9.3293766    0.0000000  0.00   -0.0008475   -0.0001702   -0.0000000
 H   -0.8613017   -9.2229058    0.0000000  0.00    0.0002537   -0.0004610   -0.0000000
