148
 Energy =   -4513.4023666510
 C    7.1138219   -6.1047276    0.0000000  0.00   -0.0002825   -0.0005593   -0.0000000
 C    5.6800912   -6.0670382    0.0000000  0.00   -0.0003523    0.0009533   -0.0000000
 C    7.7740811   -7.3518414    0.0000000  0.00   -0.0000077    0.0019246   -0.0000000
 C    4.9563325   -7.2781988    0.0000000  0.00    0.0004395   -0.0011110   -0.0000000
 C    7.0508319   -8.5250423    0.0000000  0.00   -0.0008047   -0.0003976   -0.0000000
 C    5.6605747   -8.4941378    0.0000000  0.00    0.0005064    0.0006273   -0.0000000
 C    7.1911916   -3.6718678    0.0000000  0.00    0.0003570   -0.0000889   -0.0000000
 C    5.7507465   -3.6350189    0.0000000  0.00   -0.0004251   -0.0004631   -0.0000000
 C    7.8346735   -4.9042750    0.0000000  0.00    0.0002969    0.0012438   -0.0000000
 C    4.9924500   -4.8197070    0.0000000  0.00    0.0014510    0.0012594   -0.0000000
 C    7.2777010   -1.2355267    0.0000000  0.00   -0.0003510    0.0003760   -0.0000000
 C    5.8402813   -1.2237939    0.0000000  0.00    0.0024841   -0.0000869   -0.0000000
 C    7.9230369   -2.4637899    0.0000000  0.00    0.0012653    0.0003142   -0.0000000
 C    5.0768531   -2.4002499    0.0000000  0.00   -0.0008743   -0.0010797   -0.0000000
 C    7.9626404    0.0000000    0.0000000  0.00   -0.0007842   -0.0000000   -0.0000000
 C    5.1627630    0.0000000    0.0000000  0.00   -0.0027856   -0.0000000   -0.0000000
 C    3.5616145   -4.7538672    0.0000000  0.00   -0.0009008   -0.0011873   -0.0000000
 C    2.8351412   -5.9576836    0.0000000  0.00    0.0007931    0.0010495   -0.0000000
 C    3.5159718   -7.2080999    0.0000000  0.00   -0.0005085    0.0001250   -0.0000000
 C    3.6391894   -2.3535533    0.0000000  0.00   -0.0003632    0.0004690   -0.0000000
 C    2.8601005   -3.5066054    0.0000000  0.00    0.0004158    0.0008210   -0.0000000
 C    3.7762385    0.0000000    0.0000000  0.00    0.0018303   -0.0000000   -0.0000000
 C    2.9763211   -1.1283665    0.0000000  0.00    0.0006775   -0.0009438   -0.0000000
 C    1.4132421   -5.8696655    0.0000000  0.00   -0.0007918    0.0001659   -0.0000000
 C    0.7097969   -7.0914720    0.0000000  0.00   -0.0000043    0.0002482   -0.0000000
 C    2.7577517   -8.3836940    0.0000000  0.00    0.0011829   -0.0007502   -0.0000000
 C    1.4040667   -8.3210703    0.0000000  0.00   -0.0008784   -0.0010916   -0.0000000
 C    1.4234051   -3.3451888    0.0000000  0.00   -0.0016948    0.0001095   -0.0000000
 C    0.7079323   -4.5945605    0.0000000  0.00    0.0023334    0.0007933   -0.0000000
 C    1.5821794   -0.8121937    0.0000000  0.00   -0.0005940   -0.0000477   -0.0000000
 C    0.7369267   -2.0071862    0.0000000  0.00    0.0012176    0.0003573   -0.0000000
 H    8.8579679   -7.3706999    0.0000000  0.00    0.0000412    0.0012237   -0.0000000
 H    7.5632120   -9.4801994    0.0000000  0.00    0.0005943    0.0003802   -0.0000000
 H    5.1309793   -9.4351264    0.0000000  0.00    0.0005907   -0.0021698   -0.0000000
 H    8.9188332   -4.9389348    0.0000000  0.00   -0.0001048    0.0008724   -0.0000000
 H    9.0068626   -2.5068135    0.0000000  0.00   -0.0005354   -0.0011316   -0.0000000
 H    9.0473083    0.0000000    0.0000000  0.00    0.0003168   -0.0000000   -0.0000000
 H    3.2354582   -9.3514739    0.0000000  0.00    0.0006795   -0.0007997   -0.0000000
 H    0.8649838   -9.2522744    0.0000000  0.00   -0.0001929   -0.0008467   -0.0000000
 C   -7.1138219    6.1047276    0.0000000  0.00    0.0002825    0.0005593   -0.0000000
 C   -5.6800912    6.0670382    0.0000000  0.00    0.0003523   -0.0009533   -0.0000000
 C   -7.7740811    7.3518414    0.0000000  0.00    0.0000077   -0.0019246   -0.0000000
 C   -4.9563325    7.2781988    0.0000000  0.00   -0.0004395    0.0011110   -0.0000000
 C   -7.0508319    8.5250423    0.0000000  0.00    0.0008047    0.0003976   -0.0000000
 C   -5.6605747    8.4941378    0.0000000  0.00   -0.0005064   -0.0006273   -0.0000000
 C   -7.1911916    3.6718678    0.0000000  0.00   -0.0003570    0.0000889   -0.0000000
 C   -5.7507465    3.6350189    0.0000000  0.00    0.0004251    0.0004631   -0.0000000
 C   -7.8346735    4.9042750    0.0000000  0.00   -0.0002969   -0.0012438   -0.0000000
 C   -4.9924500    4.8197070    0.0000000  0.00   -0.0014510   -0.0012594   -0.0000000
 C   -7.2777010    1.2355267    0.0000000  0.00    0.0003510   -0.0003760   -0.0000000
 C   -5.8402813    1.2237939    0.0000000  0.00   -0.0024841    0.0000869   -0.0000000
 C   -7.9230369    2.4637899    0.0000000  0.00   -0.0012653   -0.0003142   -0.0000000
 C   -5.0768531    2.4002499    0.0000000  0.00    0.0008743    0.0010797   -0.0000000
 C   -7.9626404    0.0000000    0.0000000  0.00    0.0007842   -0.0000000   -0.0000000
 C   -5.1627630    0.0000000    0.0000000  0.00    0.0027856   -0.0000000   -0.0000000
 C   -3.5616145    4.7538672    0.0000000  0.00    0.0009008    0.0011873   -0.0000000
 C   -2.8351412    5.9576836    0.0000000  0.00   -0.0007931   -0.0010495   -0.0000000
 C   -3.5159718    7.2080999    0.0000000  0.00    0.0005085   -0.0001250   -0.0000000
 C   -3.6391894    2.3535533    0.0000000  0.00    0.0003632   -0.0004690   -0.0000000
 C   -2.8601005    3.5066054    0.0000000  0.00   -0.0004158   -0.0008210   -0.0000000
 C   -3.7762385    0.0000000    0.0000000  0.00   -0.0018303   -0.0000000   -0.0000000
 C   -2.9763211    1.1283665    0.0000000  0.00   -0.0006775    0.0009438   -0.0000000
 C   -1.4132421    5.8696655    0.0000000  0.00    0.0007918   -0.0001659   -0.0000000
 C   -0.7097969    7.0914720    0.0000000  0.00    0.0000043   -0.0002482   -0.0000000
 C   -2.7577517    8.3836940    0.0000000  0.00   -0.0011829    0.0007502   -0.0000000
 C   -1.4040667    8.3210703    0.0000000  0.00    0.0008784    0.0010916   -0.0000000
 C   -1.4234051    3.3451888    0.0000000  0.00    0.0016948   -0.0001095   -0.0000000
 C   -0.7079323    4.5945605    0.0000000  0.00   -0.0023334   -0.0007933   -0.0000000
 C   -1.5821794    0.8121937    0.0000000  0.00    0.0005940    0.0000477   -0.0000000
 C   -0.7369267    2.0071862    0.0000000  0.00   -0.0012176   -0.0003573   -0.0000000
 H   -8.8579679    7.3706999    0.0000000  0.00   -0.0000412   -0.0012237   -0.0000000
 H   -7.5632120    9.4801994    0.0000000  0.00   -0.0005943   -0.0003802   -0.0000000
 H   -5.1309793    9.4351264    0.0000000  0.00   -0.0005907    0.0021698   -0.0000000
 H   -8.9188332    4.9389348    0.0000000  0.00    0.0001048   -0.0008724   -0.0000000
 H   -9.0068626    2.5068135    0.0000000  0.00    0.0005354    0.0011316   -0.0000000
 H   -9.0473083    0.0000000    0.0000000  0.00   -0.0003168   -0.0000000   -0.0000000
 H   -3.2354582    9.3514739    0.0000000  0.00   -0.0006795    0.0007997   -0.0000000
 H   -0.8649838    9.2522744    0.0000000  0.00    0.0001929    0.0008467   -0.0000000
 C    7.1138219    6.1047276    0.0000000  0.00   -0.0002825    0.0005593   -0.0000000
 C    5.6800912    6.0670382    0.0000000  0.00   -0.0003523   -0.0009533   -0.0000000
 C    7.7740811    7.3518414    0.0000000  0.00   -0.0000077   -0.0019246   -0.0000000
 C    4.9563325    7.2781988    0.0000000  0.00    0.0004395    0.0011110   -0.0000000
 C    7.0508319    8.5250423    0.0000000  0.00   -0.0008047    0.0003976   -0.0000000
 C    5.6605747    8.4941378    0.0000000  0.00    0.0005064   -0.0006273   -0.0000000
 C    7.1911916    3.6718678    0.0000000  0.00    0.0003570    0.0000889   -0.0000000
 C    5.7507465    3.6350189    0.0000000  0.00   -0.0004251    0.0004631   -0.0000000
 C    7.8346735    4.9042750    0.0000000  0.00    0.0002969   -0.0012438   -0.0000000
 C    4.9924500    4.8197070    0.0000000  0.00    0.0014510   -0.0012594   -0.0000000
 C    7.2777010    1.2355267    0.0000000  0.00   -0.0003510   -0.0003760   -0.0000000
 C    5.8402813    1.2237939    0.0000000  0.00    0.0024841    0.0000869   -0.0000000
 C    7.9230369    2.4637899    0.0000000  0.00    0.0012653   -0.0003142   -0.0000000
 C    5.0768531    2.4002499    0.0000000  0.00   -0.0008743    0.0010797   -0.0000000
 C    3.5616145    4.7538672    0.0000000  0.00   -0.0009008    0.0011873   -0.0000000
 C    2.8351412    5.9576836    0.0000000  0.00    0.0007931   -0.0010495   -0.0000000
 C    3.5159718    7.2080999    0.0000000  0.00   -0.0005085   -0.0001250   -0.0000000
 C    3.6391894    2.3535533    0.0000000  0.00   -0.0003632   -0.0004690   -0.0000000
 C    2.8601005    3.5066054    0.0000000  0.00    0.0004158   -0.0008210   -0.0000000
 C    2.9763211    1.1283665    0.0000000  0.00    0.0006775    0.0009438   -0.0000000
 C    1.4132421    5.8696655    0.0000000  0.00   -0.0007918   -0.0001659   -0.0000000
 C    0.7097969    7.0914720    0.0000000  0.00   -0.0000043   -0.0002482   -0.0000000
 C    2.7577517    8.3836940    0.0000000  0.00    0.0011829    0.0007502   -0.0000000
 C    1.4040667    8.3210703    0.0000000  0.00   -0.0008784    0.0010916   -0.0000000
 C    1.4234051    3.3451888    0.0000000  0.00   -0.0016948   -0.0001095   -0.0000000
 C    0.7079323    4.5945605    0.0000000  0.00    0.0023334   -0.0007933   -0.0000000
 C    1.5821794    0.8121937    0.0000000  0.00   -0.0005940    0.0000477   -0.0000000
 C    0.7369267    2.0071862    0.0000000  0.00    0.0012176   -0.0003573   -0.0000000
 H    8.8579679    7.3706999    0.0000000  0.00    0.0000412   -0.0012237   -0.0000000
 H    7.5632120    9.4801994    0.0000000  0.00    0.0005943   -0.0003802   -0.0000000
 H    5.1309793    9.4351264    0.0000000  0.00    0.0005907    0.0021698   -0.0000000
 H    8.9188332    4.9389348    0.0000000  0.00   -0.0001048   -0.0008724   -0.0000000
 H    9.0068626    2.5068135    0.0000000  0.00   -0.0005354    0.0011316   -0.0000000
 H    3.2354582    9.3514739    0.0000000  0.00    0.0006795    0.0007997   -0.0000000
 H    0.8649838    9.2522744    0.0000000  0.00   -0.0001929    0.0008467   -0.0000000
 C   -7.1138219   -6.1047276    0.0000000  0.00    0.0002825   -0.0005593   -0.0000000
 C   -5.6800912   -6.0670382    0.0000000  0.00    0.0003523    0.0009533   -0.0000000
 C   -7.7740811   -7.3518414    0.0000000  0.00    0.0000077    0.0019246   -0.0000000
 C   -4.9563325   -7.2781988    0.0000000  0.00   -0.0004395   -0.0011110   -0.0000000
 C   -7.0508319   -8.5250423    0.0000000  0.00    0.0008047   -0.0003976   -0.0000000
 C   -5.6605747   -8.4941378    0.0000000  0.00   -0.0005064    0.0006273   -0.0000000
 C   -7.1911916   -3.6718678    0.0000000  0.00   -0.0003570   -0.0000889   -0.0000000
 C   -5.7507465   -3.6350189    0.0000000  0.00    0.0004251   -0.0004631   -0.0000000
 C   -7.8346735   -4.9042750    0.0000000  0.00   -0.0002969    0.0012438   -0.0000000
 C   -4.9924500   -4.8197070    0.0000000  0.00   -0.0014510    0.0012594   -0.0000000
 C   -7.2777010   -1.2355267    0.0000000  0.00    0.0003510    0.0003760   -0.0000000
 C   -5.8402813   -1.2237939    0.0000000  0.00   -0.0024841   -0.0000869   -0.0000000
 C   -7.9230369   -2.4637899    0.0000000  0.00   -0.0012653    0.0003142   -0.0000000
 C   -5.0768531   -2.4002499    0.0000000  0.00    0.0008743   -0.0010797   -0.0000000
 C   -3.5616145   -4.7538672    0.0000000  0.00    0.0009008   -0.0011873   -0.0000000
 C   -2.8351412   -5.9576836    0.0000000  0.00   -0.0007931    0.0010495   -0.0000000
 C   -3.5159718   -7.2080999    0.0000000  0.00    0.0005085    0.0001250   -0.0000000
 C   -3.6391894   -2.3535533    0.0000000  0.00    0.0003632    0.0004690   -0.0000000
 C   -2.8601005   -3.5066054    0.0000000  0.00   -0.0004158    0.0008210   -0.0000000
 C   -2.9763211   -1.1283665    0.0000000  0.00   -0.0006775   -0.0009438   -0.0000000
 C   -1.4132421   -5.8696655    0.0000000  0.00    0.0007918    0.0001659   -0.0000000
 C   -0.7097969   -7.0914720    0.0000000  0.00    0.0000043    0.0002482   -0.0000000
 C   -2.7577517   -8.3836940    0.0000000  0.00   -0.0011829   -0.0007502   -0.0000000
 C   -1.4040667   -8.3210703    0.0000000  0.00    0.0008784   -0.0010916   -0.0000000
 C   -1.4234051   -3.3451888    0.0000000  0.00    0.0016948    0.0001095   -0.0000000
 C   -0.7079323   -4.5945605    0.0000000  0.00   -0.0023334    0.0007933   -0.0000000
 C   -1.5821794   -0.8121937    0.0000000  0.00    0.0005940   -0.0000477   -0.0000000
 C   -0.7369267   -2.0071862    0.0000000  0.00   -0.0012176    0.0003573   -0.0000000
 H   -8.8579679   -7.3706999    0.0000000  0.00   -0.0000412    0.0012237   -0.0000000
 H   -7.5632120   -9.4801994    0.0000000  0.00   -0.0005943    0.0003802   -0.0000000
 H   -5.1309793   -9.4351264    0.0000000  0.00   -0.0005907   -0.0021698   -0.0000000
 H   -8.9188332   -4.9389348    0.0000000  0.00    0.0001048    0.0008724   -0.0000000
 H   -9.0068626   -2.5068135    0.0000000  0.00    0.0005354   -0.0011316   -0.0000000
 H   -3.2354582   -9.3514739    0.0000000  0.00   -0.0006795   -0.0007997   -0.0000000
 H   -0.8649838   -9.2522744    0.0000000  0.00    0.0001929   -0.0008467   -0.0000000
