148
 Energy =   -4513.2372360370
 C    7.1150106   -6.0942021    0.0000000  0.00   -0.0006120    0.0019753   -0.0000000
 C    5.6815210   -6.0539773    0.0000000  0.00    0.0008487    0.0002571   -0.0000000
 C    7.7807148   -7.3409319    0.0000000  0.00    0.0023835    0.0015949   -0.0000000
 C    4.9609787   -7.2639186    0.0000000  0.00   -0.0002462    0.0003651   -0.0000000
 C    7.0592542   -8.5085649    0.0000000  0.00   -0.0000072   -0.0010100   -0.0000000
 C    5.6668719   -8.4739863    0.0000000  0.00    0.0017705   -0.0004909   -0.0000000
 C    7.1971080   -3.6623020    0.0000000  0.00    0.0002722    0.0000203   -0.0000000
 C    5.7537152   -3.6280615    0.0000000  0.00   -0.0020251    0.0003207   -0.0000000
 C    7.8387071   -4.9011884    0.0000000  0.00    0.0006959    0.0002989   -0.0000000
 C    4.9975630   -4.8063252    0.0000000  0.00    0.0005831   -0.0007333   -0.0000000
 C    7.2933267   -1.2275424    0.0000000  0.00   -0.0005249    0.0002951   -0.0000000
 C    5.8541172   -1.2195827    0.0000000  0.00   -0.0015965   -0.0007419   -0.0000000
 C    7.9329969   -2.4687463    0.0000000  0.00   -0.0014657    0.0006011   -0.0000000
 C    5.0837880   -2.3946449    0.0000000  0.00   -0.0000783    0.0005707   -0.0000000
 C    7.9770081    0.0000000    0.0000000  0.00   -0.0002463   -0.0000000   -0.0000000
 C    5.1741195    0.0000000    0.0000000  0.00   -0.0018500   -0.0000000   -0.0000000
 C    3.5618620   -4.7392660    0.0000000  0.00   -0.0022710   -0.0014027   -0.0000000
 C    2.8341114   -5.9459874    0.0000000  0.00   -0.0001316    0.0026541   -0.0000000
 C    3.5153771   -7.1963466    0.0000000  0.00    0.0023832   -0.0014311   -0.0000000
 C    3.6454966   -2.3462021    0.0000000  0.00   -0.0040807    0.0008812   -0.0000000
 C    2.8651223   -3.4995430    0.0000000  0.00    0.0008967    0.0032445   -0.0000000
 C    3.7836840    0.0000000    0.0000000  0.00   -0.0035191   -0.0000000   -0.0000000
 C    2.9842343   -1.1221206    0.0000000  0.00   -0.0014515   -0.0012593   -0.0000000
 C    1.4149632   -5.8561493    0.0000000  0.00    0.0004839   -0.0017363   -0.0000000
 C    0.7130561   -7.0784259    0.0000000  0.00   -0.0008154   -0.0001022   -0.0000000
 C    2.7629548   -8.3680919    0.0000000  0.00    0.0022894   -0.0007301   -0.0000000
 C    1.4046952   -8.3009679    0.0000000  0.00    0.0003433   -0.0017864   -0.0000000
 C    1.4209069   -3.3369343    0.0000000  0.00   -0.0019370    0.0014814   -0.0000000
 C    0.7111510   -4.5771485    0.0000000  0.00    0.0009467    0.0010867   -0.0000000
 C    1.5833277   -0.7953334    0.0000000  0.00   -0.0020771    0.0026182   -0.0000000
 C    0.7340661   -1.9983836    0.0000000  0.00   -0.0008834    0.0020446   -0.0000000
 H    8.8707567   -7.3538939    0.0000000  0.00   -0.0006348   -0.0001895   -0.0000000
 H    7.5670458   -9.4731226    0.0000000  0.00    0.0018878    0.0010869   -0.0000000
 H    5.1419832   -9.4268224    0.0000000  0.00   -0.0001878    0.0003943   -0.0000000
 H    8.9256035   -4.9435302    0.0000000  0.00    0.0005905    0.0019570   -0.0000000
 H    9.0169165   -2.5213869    0.0000000  0.00    0.0004801    0.0025575   -0.0000000
 H    9.0613110    0.0000000    0.0000000  0.00    0.0007329   -0.0000000   -0.0000000
 H    3.2393632   -9.3403604    0.0000000  0.00   -0.0006064   -0.0012643   -0.0000000
 H    0.8677515   -9.2342293    0.0000000  0.00   -0.0002266    0.0011036   -0.0000000
 C   -7.1150106    6.0942021    0.0000000  0.00    0.0006120   -0.0019753   -0.0000000
 C   -5.6815210    6.0539773    0.0000000  0.00   -0.0008487   -0.0002571   -0.0000000
 C   -7.7807148    7.3409319    0.0000000  0.00   -0.0023835   -0.0015949   -0.0000000
 C   -4.9609787    7.2639186    0.0000000  0.00    0.0002462   -0.0003651   -0.0000000
 C   -7.0592542    8.5085649    0.0000000  0.00    0.0000072    0.0010100   -0.0000000
 C   -5.6668719    8.4739863    0.0000000  0.00   -0.0017705    0.0004909   -0.0000000
 C   -7.1971080    3.6623020    0.0000000  0.00   -0.0002722   -0.0000203   -0.0000000
 C   -5.7537152    3.6280615    0.0000000  0.00    0.0020251   -0.0003207   -0.0000000
 C   -7.8387071    4.9011884    0.0000000  0.00   -0.0006959   -0.0002989   -0.0000000
 C   -4.9975630    4.8063252    0.0000000  0.00   -0.0005831    0.0007333   -0.0000000
 C   -7.2933267    1.2275424    0.0000000  0.00    0.0005249   -0.0002951   -0.0000000
 C   -5.8541172    1.2195827    0.0000000  0.00    0.0015965    0.0007419   -0.0000000
 C   -7.9329969    2.4687463    0.0000000  0.00    0.0014657   -0.0006011   -0.0000000
 C   -5.0837880    2.3946449    0.0000000  0.00    0.0000783   -0.0005707   -0.0000000
 C   -7.9770081    0.0000000    0.0000000  0.00    0.0002463   -0.0000000   -0.0000000
 C   -5.1741195    0.0000000    0.0000000  0.00    0.0018500   -0.0000000   -0.0000000
 C   -3.5618620    4.7392660    0.0000000  0.00    0.0022710    0.0014027   -0.0000000
 C   -2.8341114    5.9459874    0.0000000  0.00    0.0001316   -0.0026541   -0.0000000
 C   -3.5153771    7.1963466    0.0000000  0.00   -0.0023832    0.0014311   -0.0000000
 C   -3.6454966    2.3462021    0.0000000  0.00    0.0040807   -0.0008812   -0.0000000
 C   -2.8651223    3.4995430    0.0000000  0.00   -0.0008967   -0.0032445   -0.0000000
 C   -3.7836840    0.0000000    0.0000000  0.00    0.0035191   -0.0000000   -0.0000000
 C   -2.9842343    1.1221206    0.0000000  0.00    0.0014515    0.0012593   -0.0000000
 C   -1.4149632    5.8561493    0.0000000  0.00   -0.0004839    0.0017363   -0.0000000
 C   -0.7130561    7.0784259    0.0000000  0.00    0.0008154    0.0001022   -0.0000000
 C   -2.7629548    8.3680919    0.0000000  0.00   -0.0022894    0.0007301   -0.0000000
 C   -1.4046952    8.3009679    0.0000000  0.00   -0.0003433    0.0017864   -0.0000000
 C   -1.4209069    3.3369343    0.0000000  0.00    0.0019370   -0.0014814   -0.0000000
 C   -0.7111510    4.5771485    0.0000000  0.00   -0.0009467   -0.0010867   -0.0000000
 C   -1.5833277    0.7953334    0.0000000  0.00    0.0020771   -0.0026182   -0.0000000
 C   -0.7340661    1.9983836    0.0000000  0.00    0.0008834   -0.0020446   -0.0000000
 H   -8.8707567    7.3538939    0.0000000  0.00    0.0006348    0.0001895   -0.0000000
 H   -7.5670458    9.4731226    0.0000000  0.00   -0.0018878   -0.0010869   -0.0000000
 H   -5.1419832    9.4268224    0.0000000  0.00    0.0001878   -0.0003943   -0.0000000
 H   -8.9256035    4.9435302    0.0000000  0.00   -0.0005905   -0.0019570   -0.0000000
 H   -9.0169165    2.5213869    0.0000000  0.00   -0.0004801   -0.0025575   -0.0000000
 H   -9.0613110    0.0000000    0.0000000  0.00   -0.0007329   -0.0000000   -0.0000000
 H   -3.2393632    9.3403604    0.0000000  0.00    0.0006064    0.0012643   -0.0000000
 H   -0.8677515    9.2342293    0.0000000  0.00    0.0002266   -0.0011036   -0.0000000
 C    7.1150106    6.0942021    0.0000000  0.00   -0.0006120   -0.0019753   -0.0000000
 C    5.6815210    6.0539773    0.0000000  0.00    0.0008487   -0.0002571   -0.0000000
 C    7.7807148    7.3409319    0.0000000  0.00    0.0023835   -0.0015949   -0.0000000
 C    4.9609787    7.2639186    0.0000000  0.00   -0.0002462   -0.0003651   -0.0000000
 C    7.0592542    8.5085649    0.0000000  0.00   -0.0000072    0.0010100   -0.0000000
 C    5.6668719    8.4739863    0.0000000  0.00    0.0017705    0.0004909   -0.0000000
 C    7.1971080    3.6623020    0.0000000  0.00    0.0002722   -0.0000203   -0.0000000
 C    5.7537152    3.6280615    0.0000000  0.00   -0.0020251   -0.0003207   -0.0000000
 C    7.8387071    4.9011884    0.0000000  0.00    0.0006959   -0.0002989   -0.0000000
 C    4.9975630    4.8063252    0.0000000  0.00    0.0005831    0.0007333   -0.0000000
 C    7.2933267    1.2275424    0.0000000  0.00   -0.0005249   -0.0002951   -0.0000000
 C    5.8541172    1.2195827    0.0000000  0.00   -0.0015965    0.0007419   -0.0000000
 C    7.9329969    2.4687463    0.0000000  0.00   -0.0014657   -0.0006011   -0.0000000
 C    5.0837880    2.3946449    0.0000000  0.00   -0.0000783   -0.0005707   -0.0000000
 C    3.5618620    4.7392660    0.0000000  0.00   -0.0022710    0.0014027   -0.0000000
 C    2.8341114    5.9459874    0.0000000  0.00   -0.0001316   -0.0026541   -0.0000000
 C    3.5153771    7.1963466    0.0000000  0.00    0.0023832    0.0014311   -0.0000000
 C    3.6454966    2.3462021    0.0000000  0.00   -0.0040807   -0.0008812   -0.0000000
 C    2.8651223    3.4995430    0.0000000  0.00    0.0008967   -0.0032445   -0.0000000
 C    2.9842343    1.1221206    0.0000000  0.00   -0.0014515    0.0012593   -0.0000000
 C    1.4149632    5.8561493    0.0000000  0.00    0.0004839    0.0017363   -0.0000000
 C    0.7130561    7.0784259    0.0000000  0.00   -0.0008154    0.0001022   -0.0000000
 C    2.7629548    8.3680919    0.0000000  0.00    0.0022894    0.0007301   -0.0000000
 C    1.4046952    8.3009679    0.0000000  0.00    0.0003433    0.0017864   -0.0000000
 C    1.4209069    3.3369343    0.0000000  0.00   -0.0019370   -0.0014814   -0.0000000
 C    0.7111510    4.5771485    0.0000000  0.00    0.0009467   -0.0010867   -0.0000000
 C    1.5833277    0.7953334    0.0000000  0.00   -0.0020771   -0.0026182   -0.0000000
 C    0.7340661    1.9983836    0.0000000  0.00   -0.0008834   -0.0020446   -0.0000000
 H    8.8707567    7.3538939    0.0000000  0.00   -0.0006348    0.0001895   -0.0000000
 H    7.5670458    9.4731226    0.0000000  0.00    0.0018878   -0.0010869   -0.0000000
 H    5.1419832    9.4268224    0.0000000  0.00   -0.0001878   -0.0003943   -0.0000000
 H    8.9256035    4.9435302    0.0000000  0.00    0.0005905   -0.0019570   -0.0000000
 H    9.0169165    2.5213869    0.0000000  0.00    0.0004801   -0.0025575   -0.0000000
 H    3.2393632    9.3403604    0.0000000  0.00   -0.0006064    0.0012643   -0.0000000
 H    0.8677515    9.2342293    0.0000000  0.00   -0.0002266   -0.0011036   -0.0000000
 C   -7.1150106   -6.0942021    0.0000000  0.00    0.0006120    0.0019753   -0.0000000
 C   -5.6815210   -6.0539773    0.0000000  0.00   -0.0008487    0.0002571   -0.0000000
 C   -7.7807148   -7.3409319    0.0000000  0.00   -0.0023835    0.0015949   -0.0000000
 C   -4.9609787   -7.2639186    0.0000000  0.00    0.0002462    0.0003651   -0.0000000
 C   -7.0592542   -8.5085649    0.0000000  0.00    0.0000072   -0.0010100   -0.0000000
 C   -5.6668719   -8.4739863    0.0000000  0.00   -0.0017705   -0.0004909   -0.0000000
 C   -7.1971080   -3.6623020    0.0000000  0.00   -0.0002722    0.0000203   -0.0000000
 C   -5.7537152   -3.6280615    0.0000000  0.00    0.0020251    0.0003207   -0.0000000
 C   -7.8387071   -4.9011884    0.0000000  0.00   -0.0006959    0.0002989   -0.0000000
 C   -4.9975630   -4.8063252    0.0000000  0.00   -0.0005831   -0.0007333   -0.0000000
 C   -7.2933267   -1.2275424    0.0000000  0.00    0.0005249    0.0002951   -0.0000000
 C   -5.8541172   -1.2195827    0.0000000  0.00    0.0015965   -0.0007419   -0.0000000
 C   -7.9329969   -2.4687463    0.0000000  0.00    0.0014657    0.0006011   -0.0000000
 C   -5.0837880   -2.3946449    0.0000000  0.00    0.0000783    0.0005707   -0.0000000
 C   -3.5618620   -4.7392660    0.0000000  0.00    0.0022710   -0.0014027   -0.0000000
 C   -2.8341114   -5.9459874    0.0000000  0.00    0.0001316    0.0026541   -0.0000000
 C   -3.5153771   -7.1963466    0.0000000  0.00   -0.0023832   -0.0014311   -0.0000000
 C   -3.6454966   -2.3462021    0.0000000  0.00    0.0040807    0.0008812   -0.0000000
 C   -2.8651223   -3.4995430    0.0000000  0.00   -0.0008967    0.0032445   -0.0000000
 C   -2.9842343   -1.1221206    0.0000000  0.00    0.0014515   -0.0012593   -0.0000000
 C   -1.4149632   -5.8561493    0.0000000  0.00   -0.0004839   -0.0017363   -0.0000000
 C   -0.7130561   -7.0784259    0.0000000  0.00    0.0008154   -0.0001022   -0.0000000
 C   -2.7629548   -8.3680919    0.0000000  0.00   -0.0022894   -0.0007301   -0.0000000
 C   -1.4046952   -8.3009679    0.0000000  0.00   -0.0003433   -0.0017864   -0.0000000
 C   -1.4209069   -3.3369343    0.0000000  0.00    0.0019370    0.0014814   -0.0000000
 C   -0.7111510   -4.5771485    0.0000000  0.00   -0.0009467    0.0010867   -0.0000000
 C   -1.5833277   -0.7953334    0.0000000  0.00    0.0020771    0.0026182   -0.0000000
 C   -0.7340661   -1.9983836    0.0000000  0.00    0.0008834    0.0020446   -0.0000000
 H   -8.8707567   -7.3538939    0.0000000  0.00    0.0006348   -0.0001895   -0.0000000
 H   -7.5670458   -9.4731226    0.0000000  0.00   -0.0018878    0.0010869   -0.0000000
 H   -5.1419832   -9.4268224    0.0000000  0.00    0.0001878    0.0003943   -0.0000000
 H   -8.9256035   -4.9435302    0.0000000  0.00   -0.0005905    0.0019570   -0.0000000
 H   -9.0169165   -2.5213869    0.0000000  0.00   -0.0004801    0.0025575   -0.0000000
 H   -3.2393632   -9.3403604    0.0000000  0.00    0.0006064   -0.0012643   -0.0000000
 H   -0.8677515   -9.2342293    0.0000000  0.00    0.0002266    0.0011036   -0.0000000
