148
 Energy =   -4513.4209466030
 C    7.1245932   -6.1051719    0.0000000  0.00    0.0006349    0.0006833   -0.0000000
 C    5.6903082   -6.0687849    0.0000000  0.00   -0.0017883    0.0006661   -0.0000000
 C    7.7828282   -7.3550494    0.0000000  0.00   -0.0009488    0.0012959   -0.0000000
 C    4.9672874   -7.2770536    0.0000000  0.00   -0.0003975   -0.0004454   -0.0000000
 C    7.0587693   -8.5258130    0.0000000  0.00   -0.0006707   -0.0003979   -0.0000000
 C    5.6665489   -8.4931544    0.0000000  0.00    0.0003712    0.0011948   -0.0000000
 C    7.2064007   -3.6676807    0.0000000  0.00    0.0007416    0.0011307   -0.0000000
 C    5.7613161   -3.6371285    0.0000000  0.00   -0.0001398   -0.0000360   -0.0000000
 C    7.8461242   -4.9083312    0.0000000  0.00   -0.0004395    0.0006588   -0.0000000
 C    5.0060755   -4.8181401    0.0000000  0.00    0.0015244   -0.0006064   -0.0000000
 C    7.2881401   -1.2299992    0.0000000  0.00   -0.0007891    0.0002363   -0.0000000
 C    5.8506942   -1.2231519    0.0000000  0.00    0.0000517   -0.0001848   -0.0000000
 C    7.9320515   -2.4690777    0.0000000  0.00   -0.0000763   -0.0000823   -0.0000000
 C    5.0872535   -2.4026299    0.0000000  0.00    0.0009958   -0.0006213   -0.0000000
 C    7.9644114    0.0000000    0.0000000  0.00    0.0014312   -0.0000000   -0.0000000
 C    5.1702435    0.0000000    0.0000000  0.00   -0.0008187   -0.0000000   -0.0000000
 C    3.5713624   -4.7509341    0.0000000  0.00   -0.0027844   -0.0003965   -0.0000000
 C    2.8409668   -5.9509173    0.0000000  0.00    0.0003921    0.0003174   -0.0000000
 C    3.5220464   -7.2052966    0.0000000  0.00   -0.0011259   -0.0000330   -0.0000000
 C    3.6506054   -2.3556211    0.0000000  0.00   -0.0016712    0.0002754   -0.0000000
 C    2.8711500   -3.5078317    0.0000000  0.00    0.0012341   -0.0001412   -0.0000000
 C    3.7786720    0.0000000    0.0000000  0.00    0.0003264   -0.0000000   -0.0000000
 C    2.9861792   -1.1315587    0.0000000  0.00   -0.0005654   -0.0005000   -0.0000000
 C    1.4188454   -5.8604892    0.0000000  0.00   -0.0023561   -0.0012158   -0.0000000
 C    0.7140568   -7.0833678    0.0000000  0.00    0.0016828   -0.0006184   -0.0000000
 C    2.7644098   -8.3705204    0.0000000  0.00   -0.0022466    0.0008497   -0.0000000
 C    1.4037176   -8.3033509    0.0000000  0.00    0.0014021    0.0002669   -0.0000000
 C    1.4302616   -3.3520832    0.0000000  0.00   -0.0019457   -0.0018558   -0.0000000
 C    0.7158616   -4.5846230    0.0000000  0.00    0.0017508    0.0005515   -0.0000000
 C    1.5868593   -0.8320378    0.0000000  0.00   -0.0012584   -0.0012809   -0.0000000
 C    0.7461076   -1.9998808    0.0000000  0.00    0.0007330   -0.0001236   -0.0000000
 H    8.8667256   -7.3752721    0.0000000  0.00   -0.0000289    0.0009814   -0.0000000
 H    7.5697382   -9.4817369    0.0000000  0.00    0.0000983   -0.0004250   -0.0000000
 H    5.1362177   -9.4338448    0.0000000  0.00   -0.0013238   -0.0014116   -0.0000000
 H    8.9301989   -4.9448836    0.0000000  0.00    0.0000410    0.0007679   -0.0000000
 H    9.0158032   -2.5099046    0.0000000  0.00   -0.0004107   -0.0021019   -0.0000000
 H    9.0491703    0.0000000    0.0000000  0.00   -0.0000302   -0.0000000   -0.0000000
 H    3.2369981   -9.3408406    0.0000000  0.00    0.0012818   -0.0011986   -0.0000000
 H    0.8655406   -9.2354758    0.0000000  0.00    0.0003538   -0.0005466   -0.0000000
 C   -7.1245932    6.1051719    0.0000000  0.00   -0.0006349   -0.0006833   -0.0000000
 C   -5.6903082    6.0687849    0.0000000  0.00    0.0017883   -0.0006661   -0.0000000
 C   -7.7828282    7.3550494    0.0000000  0.00    0.0009488   -0.0012959   -0.0000000
 C   -4.9672874    7.2770536    0.0000000  0.00    0.0003975    0.0004454   -0.0000000
 C   -7.0587693    8.5258130    0.0000000  0.00    0.0006707    0.0003979   -0.0000000
 C   -5.6665489    8.4931544    0.0000000  0.00   -0.0003712   -0.0011948   -0.0000000
 C   -7.2064007    3.6676807    0.0000000  0.00   -0.0007416   -0.0011307   -0.0000000
 C   -5.7613161    3.6371285    0.0000000  0.00    0.0001398    0.0000360   -0.0000000
 C   -7.8461242    4.9083312    0.0000000  0.00    0.0004395   -0.0006588   -0.0000000
 C   -5.0060755    4.8181401    0.0000000  0.00   -0.0015244    0.0006064   -0.0000000
 C   -7.2881401    1.2299992    0.0000000  0.00    0.0007891   -0.0002363   -0.0000000
 C   -5.8506942    1.2231519    0.0000000  0.00   -0.0000517    0.0001848   -0.0000000
 C   -7.9320515    2.4690777    0.0000000  0.00    0.0000763    0.0000823   -0.0000000
 C   -5.0872535    2.4026299    0.0000000  0.00   -0.0009958    0.0006213   -0.0000000
 C   -7.9644114    0.0000000    0.0000000  0.00   -0.0014312   -0.0000000   -0.0000000
 C   -5.1702435    0.0000000    0.0000000  0.00    0.0008187   -0.0000000   -0.0000000
 C   -3.5713624    4.7509341    0.0000000  0.00    0.0027844    0.0003965   -0.0000000
 C   -2.8409668    5.9509173    0.0000000  0.00   -0.0003921   -0.0003174   -0.0000000
 C   -3.5220464    7.2052966    0.0000000  0.00    0.0011259    0.0000330   -0.0000000
 C   -3.6506054    2.3556211    0.0000000  0.00    0.0016712   -0.0002754   -0.0000000
 C   -2.8711500    3.5078317    0.0000000  0.00   -0.0012341    0.0001412   -0.0000000
 C   -3.7786720    0.0000000    0.0000000  0.00   -0.0003264   -0.0000000   -0.0000000
 C   -2.9861792    1.1315587    0.0000000  0.00    0.0005654    0.0005000   -0.0000000
 C   -1.4188454    5.8604892    0.0000000  0.00    0.0023561    0.0012158   -0.0000000
 C   -0.7140568    7.0833678    0.0000000  0.00   -0.0016828    0.0006184   -0.0000000
 C   -2.7644098    8.3705204    0.0000000  0.00    0.0022466   -0.0008497   -0.0000000
 C   -1.4037176    8.3033509    0.0000000  0.00   -0.0014021   -0.0002669   -0.0000000
 C   -1.4302616    3.3520832    0.0000000  0.00    0.0019457    0.0018558   -0.0000000
 C   -0.7158616    4.5846230    0.0000000  0.00   -0.0017508   -0.0005515   -0.0000000
 C   -1.5868593    0.8320378    0.0000000  0.00    0.0012584    0.0012809   -0.0000000
 C   -0.7461076    1.9998808    0.0000000  0.00   -0.0007330    0.0001236   -0.0000000
 H   -8.8667256    7.3752721    0.0000000  0.00    0.0000289   -0.0009814   -0.0000000
 H   -7.5697382    9.4817369    0.0000000  0.00   -0.0000983    0.0004250   -0.0000000
 H   -5.1362177    9.4338448    0.0000000  0.00    0.0013238    0.0014116   -0.0000000
 H   -8.9301989    4.9448836    0.0000000  0.00   -0.0000410   -0.0007679   -0.0000000
 H   -9.0158032    2.5099046    0.0000000  0.00    0.0004107    0.0021019   -0.0000000
 H   -9.0491703    0.0000000    0.0000000  0.00    0.0000302   -0.0000000   -0.0000000
 H   -3.2369981    9.3408406    0.0000000  0.00   -0.0012818    0.0011986   -0.0000000
 H   -0.8655406    9.2354758    0.0000000  0.00   -0.0003538    0.0005466   -0.0000000
 C    7.1245932    6.1051719    0.0000000  0.00    0.0006349   -0.0006833   -0.0000000
 C    5.6903082    6.0687849    0.0000000  0.00   -0.0017883   -0.0006661   -0.0000000
 C    7.7828282    7.3550494    0.0000000  0.00   -0.0009488   -0.0012959   -0.0000000
 C    4.9672874    7.2770536    0.0000000  0.00   -0.0003975    0.0004454   -0.0000000
 C    7.0587693    8.5258130    0.0000000  0.00   -0.0006707    0.0003979   -0.0000000
 C    5.6665489    8.4931544    0.0000000  0.00    0.0003712   -0.0011948   -0.0000000
 C    7.2064007    3.6676807    0.0000000  0.00    0.0007416   -0.0011307   -0.0000000
 C    5.7613161    3.6371285    0.0000000  0.00   -0.0001398    0.0000360   -0.0000000
 C    7.8461242    4.9083312    0.0000000  0.00   -0.0004395   -0.0006588   -0.0000000
 C    5.0060755    4.8181401    0.0000000  0.00    0.0015244    0.0006064   -0.0000000
 C    7.2881401    1.2299992    0.0000000  0.00   -0.0007891   -0.0002363   -0.0000000
 C    5.8506942    1.2231519    0.0000000  0.00    0.0000517    0.0001848   -0.0000000
 C    7.9320515    2.4690777    0.0000000  0.00   -0.0000763    0.0000823   -0.0000000
 C    5.0872535    2.4026299    0.0000000  0.00    0.0009958    0.0006213   -0.0000000
 C    3.5713624    4.7509341    0.0000000  0.00   -0.0027844    0.0003965   -0.0000000
 C    2.8409668    5.9509173    0.0000000  0.00    0.0003921   -0.0003174   -0.0000000
 C    3.5220464    7.2052966    0.0000000  0.00   -0.0011259    0.0000330   -0.0000000
 C    3.6506054    2.3556211    0.0000000  0.00   -0.0016712   -0.0002754   -0.0000000
 C    2.8711500    3.5078317    0.0000000  0.00    0.0012341    0.0001412   -0.0000000
 C    2.9861792    1.1315587    0.0000000  0.00   -0.0005654    0.0005000   -0.0000000
 C    1.4188454    5.8604892    0.0000000  0.00   -0.0023561    0.0012158   -0.0000000
 C    0.7140568    7.0833678    0.0000000  0.00    0.0016828    0.0006184   -0.0000000
 C    2.7644098    8.3705204    0.0000000  0.00   -0.0022466   -0.0008497   -0.0000000
 C    1.4037176    8.3033509    0.0000000  0.00    0.0014021   -0.0002669   -0.0000000
 C    1.4302616    3.3520832    0.0000000  0.00   -0.0019457    0.0018558   -0.0000000
 C    0.7158616    4.5846230    0.0000000  0.00    0.0017508   -0.0005515   -0.0000000
 C    1.5868593    0.8320378    0.0000000  0.00   -0.0012584    0.0012809   -0.0000000
 C    0.7461076    1.9998808    0.0000000  0.00    0.0007330    0.0001236   -0.0000000
 H    8.8667256    7.3752721    0.0000000  0.00   -0.0000289   -0.0009814   -0.0000000
 H    7.5697382    9.4817369    0.0000000  0.00    0.0000983    0.0004250   -0.0000000
 H    5.1362177    9.4338448    0.0000000  0.00   -0.0013238    0.0014116   -0.0000000
 H    8.9301989    4.9448836    0.0000000  0.00    0.0000410   -0.0007679   -0.0000000
 H    9.0158032    2.5099046    0.0000000  0.00   -0.0004107    0.0021019   -0.0000000
 H    3.2369981    9.3408406    0.0000000  0.00    0.0012818    0.0011986   -0.0000000
 H    0.8655406    9.2354758    0.0000000  0.00    0.0003538    0.0005466   -0.0000000
 C   -7.1245932   -6.1051719    0.0000000  0.00   -0.0006349    0.0006833   -0.0000000
 C   -5.6903082   -6.0687849    0.0000000  0.00    0.0017883    0.0006661   -0.0000000
 C   -7.7828282   -7.3550494    0.0000000  0.00    0.0009488    0.0012959   -0.0000000
 C   -4.9672874   -7.2770536    0.0000000  0.00    0.0003975   -0.0004454   -0.0000000
 C   -7.0587693   -8.5258130    0.0000000  0.00    0.0006707   -0.0003979   -0.0000000
 C   -5.6665489   -8.4931544    0.0000000  0.00   -0.0003712    0.0011948   -0.0000000
 C   -7.2064007   -3.6676807    0.0000000  0.00   -0.0007416    0.0011307   -0.0000000
 C   -5.7613161   -3.6371285    0.0000000  0.00    0.0001398   -0.0000360   -0.0000000
 C   -7.8461242   -4.9083312    0.0000000  0.00    0.0004395    0.0006588   -0.0000000
 C   -5.0060755   -4.8181401    0.0000000  0.00   -0.0015244   -0.0006064   -0.0000000
 C   -7.2881401   -1.2299992    0.0000000  0.00    0.0007891    0.0002363   -0.0000000
 C   -5.8506942   -1.2231519    0.0000000  0.00   -0.0000517   -0.0001848   -0.0000000
 C   -7.9320515   -2.4690777    0.0000000  0.00    0.0000763   -0.0000823   -0.0000000
 C   -5.0872535   -2.4026299    0.0000000  0.00   -0.0009958   -0.0006213   -0.0000000
 C   -3.5713624   -4.7509341    0.0000000  0.00    0.0027844   -0.0003965   -0.0000000
 C   -2.8409668   -5.9509173    0.0000000  0.00   -0.0003921    0.0003174   -0.0000000
 C   -3.5220464   -7.2052966    0.0000000  0.00    0.0011259   -0.0000330   -0.0000000
 C   -3.6506054   -2.3556211    0.0000000  0.00    0.0016712    0.0002754   -0.0000000
 C   -2.8711500   -3.5078317    0.0000000  0.00   -0.0012341   -0.0001412   -0.0000000
 C   -2.9861792   -1.1315587    0.0000000  0.00    0.0005654   -0.0005000   -0.0000000
 C   -1.4188454   -5.8604892    0.0000000  0.00    0.0023561   -0.0012158   -0.0000000
 C   -0.7140568   -7.0833678    0.0000000  0.00   -0.0016828   -0.0006184   -0.0000000
 C   -2.7644098   -8.3705204    0.0000000  0.00    0.0022466    0.0008497   -0.0000000
 C   -1.4037176   -8.3033509    0.0000000  0.00   -0.0014021    0.0002669   -0.0000000
 C   -1.4302616   -3.3520832    0.0000000  0.00    0.0019457   -0.0018558   -0.0000000
 C   -0.7158616   -4.5846230    0.0000000  0.00   -0.0017508    0.0005515   -0.0000000
 C   -1.5868593   -0.8320378    0.0000000  0.00    0.0012584   -0.0012809   -0.0000000
 C   -0.7461076   -1.9998808    0.0000000  0.00   -0.0007330   -0.0001236   -0.0000000
 H   -8.8667256   -7.3752721    0.0000000  0.00    0.0000289    0.0009814   -0.0000000
 H   -7.5697382   -9.4817369    0.0000000  0.00   -0.0000983   -0.0004250   -0.0000000
 H   -5.1362177   -9.4338448    0.0000000  0.00    0.0013238   -0.0014116   -0.0000000
 H   -8.9301989   -4.9448836    0.0000000  0.00   -0.0000410    0.0007679   -0.0000000
 H   -9.0158032   -2.5099046    0.0000000  0.00    0.0004107   -0.0021019   -0.0000000
 H   -3.2369981   -9.3408406    0.0000000  0.00   -0.0012818   -0.0011986   -0.0000000
 H   -0.8655406   -9.2354758    0.0000000  0.00   -0.0003538   -0.0005466   -0.0000000
