148
 Energy =   -4513.2351480050
 C    7.1237946   -6.1010239    0.0000000  0.00   -0.0000747    0.0000379   -0.0000000
 C    5.6889120   -6.0626482    0.0000000  0.00   -0.0004029    0.0006232   -0.0000000
 C    7.7849751   -7.3508396    0.0000000  0.00    0.0004389    0.0011798   -0.0000000
 C    4.9647778   -7.2722039    0.0000000  0.00    0.0008059    0.0009703   -0.0000000
 C    7.0597789   -8.5184057    0.0000000  0.00    0.0002975   -0.0003051   -0.0000000
 C    5.6666765   -8.4849996    0.0000000  0.00    0.0002170    0.0001640   -0.0000000
 C    7.2017620   -3.6661664    0.0000000  0.00   -0.0000551    0.0011595   -0.0000000
 C    5.7578612   -3.6340031    0.0000000  0.00   -0.0005426   -0.0001487   -0.0000000
 C    7.8450664   -4.9052572    0.0000000  0.00   -0.0002863   -0.0008041   -0.0000000
 C    5.0042911   -4.8146538    0.0000000  0.00    0.0002389    0.0002243   -0.0000000
 C    7.2842623   -1.2296852    0.0000000  0.00   -0.0000887    0.0006730   -0.0000000
 C    5.8456708   -1.2222491    0.0000000  0.00   -0.0010325    0.0001111   -0.0000000
 C    7.9301244   -2.4673310    0.0000000  0.00    0.0003203   -0.0013474   -0.0000000
 C    5.0842973   -2.4000481    0.0000000  0.00    0.0003717   -0.0002235   -0.0000000
 C    7.9643127    0.0000000    0.0000000  0.00    0.0001881   -0.0000000   -0.0000000
 C    5.1664618    0.0000000    0.0000000  0.00    0.0005964   -0.0000000   -0.0000000
 C    3.5677571   -4.7505436    0.0000000  0.00   -0.0005091   -0.0000408   -0.0000000
 C    2.8391067   -5.9497163    0.0000000  0.00    0.0009388    0.0002448   -0.0000000
 C    3.5189593   -7.2057938    0.0000000  0.00    0.0005027   -0.0004230   -0.0000000
 C    3.6472094   -2.3547715    0.0000000  0.00    0.0001868    0.0000536   -0.0000000
 C    2.8688210   -3.5072885    0.0000000  0.00    0.0006788   -0.0002902   -0.0000000
 C    3.7751463    0.0000000    0.0000000  0.00    0.0008620   -0.0000000   -0.0000000
 C    2.9838373   -1.1314447    0.0000000  0.00   -0.0000008   -0.0004653   -0.0000000
 C    1.4173755   -5.8599406    0.0000000  0.00   -0.0003477   -0.0001294   -0.0000000
 C    0.7135396   -7.0851013    0.0000000  0.00   -0.0003882    0.0009155   -0.0000000
 C    2.7619268   -8.3705842    0.0000000  0.00   -0.0001723   -0.0001983   -0.0000000
 C    1.4016462   -8.3053115    0.0000000  0.00    0.0004676   -0.0011234   -0.0000000
 C    1.4290313   -3.3522061    0.0000000  0.00   -0.0001170    0.0007127   -0.0000000
 C    0.7161609   -4.5853578    0.0000000  0.00   -0.0002515   -0.0001382   -0.0000000
 C    1.5837261   -0.8329306    0.0000000  0.00    0.0002047    0.0000068   -0.0000000
 C    0.7463094   -2.0003511    0.0000000  0.00    0.0002113   -0.0005214   -0.0000000
 H    8.8708377   -7.3696073    0.0000000  0.00   -0.0000527    0.0010767   -0.0000000
 H    7.5670304   -9.4791265    0.0000000  0.00    0.0000297    0.0007593   -0.0000000
 H    5.1351071   -9.4314911    0.0000000  0.00    0.0000375    0.0011604   -0.0000000
 H    8.9300070   -4.9415370    0.0000000  0.00   -0.0014025    0.0000632   -0.0000000
 H    9.0139748   -2.5101188    0.0000000  0.00   -0.0007638    0.0001120   -0.0000000
 H    9.0489855    0.0000000    0.0000000  0.00   -0.0000248   -0.0000000   -0.0000000
 H    3.2245759   -9.3550505    0.0000000  0.00   -0.0002969   -0.0004398   -0.0000000
 H    0.8716343   -9.2544875    0.0000000  0.00   -0.0007815   -0.0001547   -0.0000000
 C   -7.1237946    6.1010239    0.0000000  0.00    0.0000747   -0.0000379   -0.0000000
 C   -5.6889120    6.0626482    0.0000000  0.00    0.0004029   -0.0006232   -0.0000000
 C   -7.7849751    7.3508396    0.0000000  0.00   -0.0004389   -0.0011798   -0.0000000
 C   -4.9647778    7.2722039    0.0000000  0.00   -0.0008059   -0.0009703   -0.0000000
 C   -7.0597789    8.5184057    0.0000000  0.00   -0.0002975    0.0003051   -0.0000000
 C   -5.6666765    8.4849996    0.0000000  0.00   -0.0002170   -0.0001640   -0.0000000
 C   -7.2017620    3.6661664    0.0000000  0.00    0.0000551   -0.0011595   -0.0000000
 C   -5.7578612    3.6340031    0.0000000  0.00    0.0005426    0.0001487   -0.0000000
 C   -7.8450664    4.9052572    0.0000000  0.00    0.0002863    0.0008041   -0.0000000
 C   -5.0042911    4.8146538    0.0000000  0.00   -0.0002389   -0.0002243   -0.0000000
 C   -7.2842623    1.2296852    0.0000000  0.00    0.0000887   -0.0006730   -0.0000000
 C   -5.8456708    1.2222491    0.0000000  0.00    0.0010325   -0.0001111   -0.0000000
 C   -7.9301244    2.4673310    0.0000000  0.00   -0.0003203    0.0013474   -0.0000000
 C   -5.0842973    2.4000481    0.0000000  0.00   -0.0003717    0.0002235   -0.0000000
 C   -7.9643127    0.0000000    0.0000000  0.00   -0.0001881   -0.0000000   -0.0000000
 C   -5.1664618    0.0000000    0.0000000  0.00   -0.0005964   -0.0000000   -0.0000000
 C   -3.5677571    4.7505436    0.0000000  0.00    0.0005091    0.0000408   -0.0000000
 C   -2.8391067    5.9497163    0.0000000  0.00   -0.0009388   -0.0002448   -0.0000000
 C   -3.5189593    7.2057938    0.0000000  0.00   -0.0005027    0.0004230   -0.0000000
 C   -3.6472094    2.3547715    0.0000000  0.00   -0.0001868   -0.0000536   -0.0000000
 C   -2.8688210    3.5072885    0.0000000  0.00   -0.0006788    0.0002902   -0.0000000
 C   -3.7751463    0.0000000    0.0000000  0.00   -0.0008620   -0.0000000   -0.0000000
 C   -2.9838373    1.1314447    0.0000000  0.00    0.0000008    0.0004653   -0.0000000
 C   -1.4173755    5.8599406    0.0000000  0.00    0.0003477    0.0001294   -0.0000000
 C   -0.7135396    7.0851013    0.0000000  0.00    0.0003882   -0.0009155   -0.0000000
 C   -2.7619268    8.3705842    0.0000000  0.00    0.0001723    0.0001983   -0.0000000
 C   -1.4016462    8.3053115    0.0000000  0.00   -0.0004676    0.0011234   -0.0000000
 C   -1.4290313    3.3522061    0.0000000  0.00    0.0001170   -0.0007127   -0.0000000
 C   -0.7161609    4.5853578    0.0000000  0.00    0.0002515    0.0001382   -0.0000000
 C   -1.5837261    0.8329306    0.0000000  0.00   -0.0002047   -0.0000068   -0.0000000
 C   -0.7463094    2.0003511    0.0000000  0.00   -0.0002113    0.0005214   -0.0000000
 H   -8.8708377    7.3696073    0.0000000  0.00    0.0000527   -0.0010767   -0.0000000
 H   -7.5670304    9.4791265    0.0000000  0.00   -0.0000297   -0.0007593   -0.0000000
 H   -5.1351071    9.4314911    0.0000000  0.00   -0.0000375   -0.0011604   -0.0000000
 H   -8.9300070    4.9415370    0.0000000  0.00    0.0014025   -0.0000632   -0.0000000
 H   -9.0139748    2.5101188    0.0000000  0.00    0.0007638   -0.0001120   -0.0000000
 H   -9.0489855    0.0000000    0.0000000  0.00    0.0000248   -0.0000000   -0.0000000
 H   -3.2245759    9.3550505    0.0000000  0.00    0.0002969    0.0004398   -0.0000000
 H   -0.8716343    9.2544875    0.0000000  0.00    0.0007815    0.0001547   -0.0000000
 C    7.1237946    6.1010239    0.0000000  0.00   -0.0000747   -0.0000379   -0.0000000
 C    5.6889120    6.0626482    0.0000000  0.00   -0.0004029   -0.0006232   -0.0000000
 C    7.7849751    7.3508396    0.0000000  0.00    0.0004389   -0.0011798   -0.0000000
 C    4.9647778    7.2722039    0.0000000  0.00    0.0008059   -0.0009703   -0.0000000
 C    7.0597789    8.5184057    0.0000000  0.00    0.0002975    0.0003051   -0.0000000
 C    5.6666765    8.4849996    0.0000000  0.00    0.0002170   -0.0001640   -0.0000000
 C    7.2017620    3.6661664    0.0000000  0.00   -0.0000551   -0.0011595   -0.0000000
 C    5.7578612    3.6340031    0.0000000  0.00   -0.0005426    0.0001487   -0.0000000
 C    7.8450664    4.9052572    0.0000000  0.00   -0.0002863    0.0008041   -0.0000000
 C    5.0042911    4.8146538    0.0000000  0.00    0.0002389   -0.0002243   -0.0000000
 C    7.2842623    1.2296852    0.0000000  0.00   -0.0000887   -0.0006730   -0.0000000
 C    5.8456708    1.2222491    0.0000000  0.00   -0.0010325   -0.0001111   -0.0000000
 C    7.9301244    2.4673310    0.0000000  0.00    0.0003203    0.0013474   -0.0000000
 C    5.0842973    2.4000481    0.0000000  0.00    0.0003717    0.0002235   -0.0000000
 C    3.5677571    4.7505436    0.0000000  0.00   -0.0005091    0.0000408   -0.0000000
 C    2.8391067    5.9497163    0.0000000  0.00    0.0009388   -0.0002448   -0.0000000
 C    3.5189593    7.2057938    0.0000000  0.00    0.0005027    0.0004230   -0.0000000
 C    3.6472094    2.3547715    0.0000000  0.00    0.0001868   -0.0000536   -0.0000000
 C    2.8688210    3.5072885    0.0000000  0.00    0.0006788    0.0002902   -0.0000000
 C    2.9838373    1.1314447    0.0000000  0.00   -0.0000008    0.0004653   -0.0000000
 C    1.4173755    5.8599406    0.0000000  0.00   -0.0003477    0.0001294   -0.0000000
 C    0.7135396    7.0851013    0.0000000  0.00   -0.0003882   -0.0009155   -0.0000000
 C    2.7619268    8.3705842    0.0000000  0.00   -0.0001723    0.0001983   -0.0000000
 C    1.4016462    8.3053115    0.0000000  0.00    0.0004676    0.0011234   -0.0000000
 C    1.4290313    3.3522061    0.0000000  0.00   -0.0001170   -0.0007127   -0.0000000
 C    0.7161609    4.5853578    0.0000000  0.00   -0.0002515    0.0001382   -0.0000000
 C    1.5837261    0.8329306    0.0000000  0.00    0.0002047   -0.0000068   -0.0000000
 C    0.7463094    2.0003511    0.0000000  0.00    0.0002113    0.0005214   -0.0000000
 H    8.8708377    7.3696073    0.0000000  0.00   -0.0000527   -0.0010767   -0.0000000
 H    7.5670304    9.4791265    0.0000000  0.00    0.0000297   -0.0007593   -0.0000000
 H    5.1351071    9.4314911    0.0000000  0.00    0.0000375   -0.0011604   -0.0000000
 H    8.9300070    4.9415370    0.0000000  0.00   -0.0014025   -0.0000632   -0.0000000
 H    9.0139748    2.5101188    0.0000000  0.00   -0.0007638   -0.0001120   -0.0000000
 H    3.2245759    9.3550505    0.0000000  0.00   -0.0002969    0.0004398   -0.0000000
 H    0.8716343    9.2544875    0.0000000  0.00   -0.0007815    0.0001547   -0.0000000
 C   -7.1237946   -6.1010239    0.0000000  0.00    0.0000747    0.0000379   -0.0000000
 C   -5.6889120   -6.0626482    0.0000000  0.00    0.0004029    0.0006232   -0.0000000
 C   -7.7849751   -7.3508396    0.0000000  0.00   -0.0004389    0.0011798   -0.0000000
 C   -4.9647778   -7.2722039    0.0000000  0.00   -0.0008059    0.0009703   -0.0000000
 C   -7.0597789   -8.5184057    0.0000000  0.00   -0.0002975   -0.0003051   -0.0000000
 C   -5.6666765   -8.4849996    0.0000000  0.00   -0.0002170    0.0001640   -0.0000000
 C   -7.2017620   -3.6661664    0.0000000  0.00    0.0000551    0.0011595   -0.0000000
 C   -5.7578612   -3.6340031    0.0000000  0.00    0.0005426   -0.0001487   -0.0000000
 C   -7.8450664   -4.9052572    0.0000000  0.00    0.0002863   -0.0008041   -0.0000000
 C   -5.0042911   -4.8146538    0.0000000  0.00   -0.0002389    0.0002243   -0.0000000
 C   -7.2842623   -1.2296852    0.0000000  0.00    0.0000887    0.0006730   -0.0000000
 C   -5.8456708   -1.2222491    0.0000000  0.00    0.0010325    0.0001111   -0.0000000
 C   -7.9301244   -2.4673310    0.0000000  0.00   -0.0003203   -0.0013474   -0.0000000
 C   -5.0842973   -2.4000481    0.0000000  0.00   -0.0003717   -0.0002235   -0.0000000
 C   -3.5677571   -4.7505436    0.0000000  0.00    0.0005091   -0.0000408   -0.0000000
 C   -2.8391067   -5.9497163    0.0000000  0.00   -0.0009388    0.0002448   -0.0000000
 C   -3.5189593   -7.2057938    0.0000000  0.00   -0.0005027   -0.0004230   -0.0000000
 C   -3.6472094   -2.3547715    0.0000000  0.00   -0.0001868    0.0000536   -0.0000000
 C   -2.8688210   -3.5072885    0.0000000  0.00   -0.0006788   -0.0002902   -0.0000000
 C   -2.9838373   -1.1314447    0.0000000  0.00    0.0000008   -0.0004653   -0.0000000
 C   -1.4173755   -5.8599406    0.0000000  0.00    0.0003477   -0.0001294   -0.0000000
 C   -0.7135396   -7.0851013    0.0000000  0.00    0.0003882    0.0009155   -0.0000000
 C   -2.7619268   -8.3705842    0.0000000  0.00    0.0001723   -0.0001983   -0.0000000
 C   -1.4016462   -8.3053115    0.0000000  0.00   -0.0004676   -0.0011234   -0.0000000
 C   -1.4290313   -3.3522061    0.0000000  0.00    0.0001170    0.0007127   -0.0000000
 C   -0.7161609   -4.5853578    0.0000000  0.00    0.0002515   -0.0001382   -0.0000000
 C   -1.5837261   -0.8329306    0.0000000  0.00   -0.0002047    0.0000068   -0.0000000
 C   -0.7463094   -2.0003511    0.0000000  0.00   -0.0002113   -0.0005214   -0.0000000
 H   -8.8708377   -7.3696073    0.0000000  0.00    0.0000527    0.0010767   -0.0000000
 H   -7.5670304   -9.4791265    0.0000000  0.00   -0.0000297    0.0007593   -0.0000000
 H   -5.1351071   -9.4314911    0.0000000  0.00   -0.0000375    0.0011604   -0.0000000
 H   -8.9300070   -4.9415370    0.0000000  0.00    0.0014025    0.0000632   -0.0000000
 H   -9.0139748   -2.5101188    0.0000000  0.00    0.0007638    0.0001120   -0.0000000
 H   -3.2245759   -9.3550505    0.0000000  0.00    0.0002969   -0.0004398   -0.0000000
 H   -0.8716343   -9.2544875    0.0000000  0.00    0.0007815   -0.0001547   -0.0000000
