148
 Energy =   -4513.2414502950
 C    7.1176716   -6.0951381    0.0000000  0.00   -0.0007808    0.0008743   -0.0000000
 C    5.6835980   -6.0541507    0.0000000  0.00   -0.0007567    0.0001140   -0.0000000
 C    7.7810499   -7.3438181    0.0000000  0.00   -0.0006121    0.0008719   -0.0000000
 C    4.9604015   -7.2633144    0.0000000  0.00    0.0001763    0.0000166   -0.0000000
 C    7.0570939   -8.5107707    0.0000000  0.00    0.0010469   -0.0008431   -0.0000000
 C    5.6632447   -8.4742800    0.0000000  0.00   -0.0003355   -0.0001903   -0.0000000
 C    7.1992791   -3.6621052    0.0000000  0.00   -0.0000902   -0.0003526   -0.0000000
 C    5.7556123   -3.6281482    0.0000000  0.00   -0.0020073   -0.0014239   -0.0000000
 C    7.8407011   -4.9012782    0.0000000  0.00   -0.0004807    0.0004487   -0.0000000
 C    5.0003045   -4.8062289    0.0000000  0.00    0.0000971    0.0006004   -0.0000000
 C    7.2942448   -1.2273761    0.0000000  0.00    0.0000149    0.0001510   -0.0000000
 C    5.8545292   -1.2196778    0.0000000  0.00   -0.0029117    0.0013549   -0.0000000
 C    7.9345176   -2.4676806    0.0000000  0.00   -0.0015542   -0.0001269   -0.0000000
 C    5.0849710   -2.3943758    0.0000000  0.00    0.0014072   -0.0010482   -0.0000000
 C    7.9779497    0.0000000    0.0000000  0.00   -0.0018373   -0.0000000   -0.0000000
 C    5.1746842    0.0000000    0.0000000  0.00    0.0042415   -0.0000000   -0.0000000
 C    3.5626130   -4.7392094    0.0000000  0.00   -0.0007981   -0.0004006   -0.0000000
 C    2.8350170   -5.9451570    0.0000000  0.00    0.0000106    0.0000343   -0.0000000
 C    3.5141607   -7.1974556    0.0000000  0.00    0.0001544    0.0013227   -0.0000000
 C    3.6463268   -2.3459506    0.0000000  0.00   -0.0022207    0.0021723   -0.0000000
 C    2.8659341   -3.4993045    0.0000000  0.00    0.0003238   -0.0000467   -0.0000000
 C    3.7845790    0.0000000    0.0000000  0.00   -0.0063752   -0.0000000   -0.0000000
 C    2.9852468   -1.1220822    0.0000000  0.00    0.0001814   -0.0021511   -0.0000000
 C    1.4155337   -5.8546492    0.0000000  0.00   -0.0010226    0.0000067   -0.0000000
 C    0.7129036   -7.0775135    0.0000000  0.00    0.0005333   -0.0001890   -0.0000000
 C    2.7595519   -8.3672706    0.0000000  0.00    0.0012712   -0.0001086   -0.0000000
 C    1.4019152   -8.3011529    0.0000000  0.00   -0.0010391    0.0003716   -0.0000000
 C    1.4211535   -3.3360316    0.0000000  0.00   -0.0002006    0.0012192   -0.0000000
 C    0.7118191   -4.5760813    0.0000000  0.00    0.0003966    0.0002951   -0.0000000
 C    1.5836783   -0.7942999    0.0000000  0.00   -0.0023138    0.0022550   -0.0000000
 C    0.7339909   -1.9974844    0.0000000  0.00   -0.0007091    0.0019269   -0.0000000
 H    8.8679351   -7.3602273    0.0000000  0.00   -0.0006093   -0.0002695   -0.0000000
 H    7.5631503   -9.4728627    0.0000000  0.00   -0.0000558   -0.0002241   -0.0000000
 H    5.1322402   -9.4220187    0.0000000  0.00    0.0000046   -0.0003632   -0.0000000
 H    8.9261566   -4.9401272    0.0000000  0.00   -0.0013801    0.0000145   -0.0000000
 H    9.0182031   -2.5173106    0.0000000  0.00   -0.0003937    0.0006350   -0.0000000
 H    9.0623676    0.0000000    0.0000000  0.00   -0.0002397   -0.0000000   -0.0000000
 H    3.2257536   -9.3491666    0.0000000  0.00    0.0003704    0.0014959   -0.0000000
 H    0.8693660   -9.2460787    0.0000000  0.00   -0.0007711   -0.0004762   -0.0000000
 C   -7.1176716    6.0951381    0.0000000  0.00    0.0007808   -0.0008743   -0.0000000
 C   -5.6835980    6.0541507    0.0000000  0.00    0.0007567   -0.0001140   -0.0000000
 C   -7.7810499    7.3438181    0.0000000  0.00    0.0006121   -0.0008719   -0.0000000
 C   -4.9604015    7.2633144    0.0000000  0.00   -0.0001763   -0.0000166   -0.0000000
 C   -7.0570939    8.5107707    0.0000000  0.00   -0.0010469    0.0008431   -0.0000000
 C   -5.6632447    8.4742800    0.0000000  0.00    0.0003355    0.0001903   -0.0000000
 C   -7.1992791    3.6621052    0.0000000  0.00    0.0000902    0.0003526   -0.0000000
 C   -5.7556123    3.6281482    0.0000000  0.00    0.0020073    0.0014239   -0.0000000
 C   -7.8407011    4.9012782    0.0000000  0.00    0.0004807   -0.0004487   -0.0000000
 C   -5.0003045    4.8062289    0.0000000  0.00   -0.0000971   -0.0006004   -0.0000000
 C   -7.2942448    1.2273761    0.0000000  0.00   -0.0000149   -0.0001510   -0.0000000
 C   -5.8545292    1.2196778    0.0000000  0.00    0.0029117   -0.0013549   -0.0000000
 C   -7.9345176    2.4676806    0.0000000  0.00    0.0015542    0.0001269   -0.0000000
 C   -5.0849710    2.3943758    0.0000000  0.00   -0.0014072    0.0010482   -0.0000000
 C   -7.9779497    0.0000000    0.0000000  0.00    0.0018373   -0.0000000   -0.0000000
 C   -5.1746842    0.0000000    0.0000000  0.00   -0.0042415   -0.0000000   -0.0000000
 C   -3.5626130    4.7392094    0.0000000  0.00    0.0007981    0.0004006   -0.0000000
 C   -2.8350170    5.9451570    0.0000000  0.00   -0.0000106   -0.0000343   -0.0000000
 C   -3.5141607    7.1974556    0.0000000  0.00   -0.0001544   -0.0013227   -0.0000000
 C   -3.6463268    2.3459506    0.0000000  0.00    0.0022207   -0.0021723   -0.0000000
 C   -2.8659341    3.4993045    0.0000000  0.00   -0.0003238    0.0000467   -0.0000000
 C   -3.7845790    0.0000000    0.0000000  0.00    0.0063752   -0.0000000   -0.0000000
 C   -2.9852468    1.1220822    0.0000000  0.00   -0.0001814    0.0021511   -0.0000000
 C   -1.4155337    5.8546492    0.0000000  0.00    0.0010226   -0.0000067   -0.0000000
 C   -0.7129036    7.0775135    0.0000000  0.00   -0.0005333    0.0001890   -0.0000000
 C   -2.7595519    8.3672706    0.0000000  0.00   -0.0012712    0.0001086   -0.0000000
 C   -1.4019152    8.3011529    0.0000000  0.00    0.0010391   -0.0003716   -0.0000000
 C   -1.4211535    3.3360316    0.0000000  0.00    0.0002006   -0.0012192   -0.0000000
 C   -0.7118191    4.5760813    0.0000000  0.00   -0.0003966   -0.0002951   -0.0000000
 C   -1.5836783    0.7942999    0.0000000  0.00    0.0023138   -0.0022550   -0.0000000
 C   -0.7339909    1.9974844    0.0000000  0.00    0.0007091   -0.0019269   -0.0000000
 H   -8.8679351    7.3602273    0.0000000  0.00    0.0006093    0.0002695   -0.0000000
 H   -7.5631503    9.4728627    0.0000000  0.00    0.0000558    0.0002241   -0.0000000
 H   -5.1322402    9.4220187    0.0000000  0.00   -0.0000046    0.0003632   -0.0000000
 H   -8.9261566    4.9401272    0.0000000  0.00    0.0013801   -0.0000145   -0.0000000
 H   -9.0182031    2.5173106    0.0000000  0.00    0.0003937   -0.0006350   -0.0000000
 H   -9.0623676    0.0000000    0.0000000  0.00    0.0002397   -0.0000000   -0.0000000
 H   -3.2257536    9.3491666    0.0000000  0.00   -0.0003704   -0.0014959   -0.0000000
 H   -0.8693660    9.2460787    0.0000000  0.00    0.0007711    0.0004762   -0.0000000
 C    7.1176716    6.0951381    0.0000000  0.00   -0.0007808   -0.0008743   -0.0000000
 C    5.6835980    6.0541507    0.0000000  0.00   -0.0007567   -0.0001140   -0.0000000
 C    7.7810499    7.3438181    0.0000000  0.00   -0.0006121   -0.0008719   -0.0000000
 C    4.9604015    7.2633144    0.0000000  0.00    0.0001763   -0.0000166   -0.0000000
 C    7.0570939    8.5107707    0.0000000  0.00    0.0010469    0.0008431   -0.0000000
 C    5.6632447    8.4742800    0.0000000  0.00   -0.0003355    0.0001903   -0.0000000
 C    7.1992791    3.6621052    0.0000000  0.00   -0.0000902    0.0003526   -0.0000000
 C    5.7556123    3.6281482    0.0000000  0.00   -0.0020073    0.0014239   -0.0000000
 C    7.8407011    4.9012782    0.0000000  0.00   -0.0004807   -0.0004487   -0.0000000
 C    5.0003045    4.8062289    0.0000000  0.00    0.0000971   -0.0006004   -0.0000000
 C    7.2942448    1.2273761    0.0000000  0.00    0.0000149   -0.0001510   -0.0000000
 C    5.8545292    1.2196778    0.0000000  0.00   -0.0029117   -0.0013549   -0.0000000
 C    7.9345176    2.4676806    0.0000000  0.00   -0.0015542    0.0001269   -0.0000000
 C    5.0849710    2.3943758    0.0000000  0.00    0.0014072    0.0010482   -0.0000000
 C    3.5626130    4.7392094    0.0000000  0.00   -0.0007981    0.0004006   -0.0000000
 C    2.8350170    5.9451570    0.0000000  0.00    0.0000106   -0.0000343   -0.0000000
 C    3.5141607    7.1974556    0.0000000  0.00    0.0001544   -0.0013227   -0.0000000
 C    3.6463268    2.3459506    0.0000000  0.00   -0.0022207   -0.0021723   -0.0000000
 C    2.8659341    3.4993045    0.0000000  0.00    0.0003238    0.0000467   -0.0000000
 C    2.9852468    1.1220822    0.0000000  0.00    0.0001814    0.0021511   -0.0000000
 C    1.4155337    5.8546492    0.0000000  0.00   -0.0010226   -0.0000067   -0.0000000
 C    0.7129036    7.0775135    0.0000000  0.00    0.0005333    0.0001890   -0.0000000
 C    2.7595519    8.3672706    0.0000000  0.00    0.0012712    0.0001086   -0.0000000
 C    1.4019152    8.3011529    0.0000000  0.00   -0.0010391   -0.0003716   -0.0000000
 C    1.4211535    3.3360316    0.0000000  0.00   -0.0002006   -0.0012192   -0.0000000
 C    0.7118191    4.5760813    0.0000000  0.00    0.0003966   -0.0002951   -0.0000000
 C    1.5836783    0.7942999    0.0000000  0.00   -0.0023138   -0.0022550   -0.0000000
 C    0.7339909    1.9974844    0.0000000  0.00   -0.0007091   -0.0019269   -0.0000000
 H    8.8679351    7.3602273    0.0000000  0.00   -0.0006093    0.0002695   -0.0000000
 H    7.5631503    9.4728627    0.0000000  0.00   -0.0000558    0.0002241   -0.0000000
 H    5.1322402    9.4220187    0.0000000  0.00    0.0000046    0.0003632   -0.0000000
 H    8.9261566    4.9401272    0.0000000  0.00   -0.0013801   -0.0000145   -0.0000000
 H    9.0182031    2.5173106    0.0000000  0.00   -0.0003937   -0.0006350   -0.0000000
 H    3.2257536    9.3491666    0.0000000  0.00    0.0003704   -0.0014959   -0.0000000
 H    0.8693660    9.2460787    0.0000000  0.00   -0.0007711    0.0004762   -0.0000000
 C   -7.1176716   -6.0951381    0.0000000  0.00    0.0007808    0.0008743   -0.0000000
 C   -5.6835980   -6.0541507    0.0000000  0.00    0.0007567    0.0001140   -0.0000000
 C   -7.7810499   -7.3438181    0.0000000  0.00    0.0006121    0.0008719   -0.0000000
 C   -4.9604015   -7.2633144    0.0000000  0.00   -0.0001763    0.0000166   -0.0000000
 C   -7.0570939   -8.5107707    0.0000000  0.00   -0.0010469   -0.0008431   -0.0000000
 C   -5.6632447   -8.4742800    0.0000000  0.00    0.0003355   -0.0001903   -0.0000000
 C   -7.1992791   -3.6621052    0.0000000  0.00    0.0000902   -0.0003526   -0.0000000
 C   -5.7556123   -3.6281482    0.0000000  0.00    0.0020073   -0.0014239   -0.0000000
 C   -7.8407011   -4.9012782    0.0000000  0.00    0.0004807    0.0004487   -0.0000000
 C   -5.0003045   -4.8062289    0.0000000  0.00   -0.0000971    0.0006004   -0.0000000
 C   -7.2942448   -1.2273761    0.0000000  0.00   -0.0000149    0.0001510   -0.0000000
 C   -5.8545292   -1.2196778    0.0000000  0.00    0.0029117    0.0013549   -0.0000000
 C   -7.9345176   -2.4676806    0.0000000  0.00    0.0015542   -0.0001269   -0.0000000
 C   -5.0849710   -2.3943758    0.0000000  0.00   -0.0014072   -0.0010482   -0.0000000
 C   -3.5626130   -4.7392094    0.0000000  0.00    0.0007981   -0.0004006   -0.0000000
 C   -2.8350170   -5.9451570    0.0000000  0.00   -0.0000106    0.0000343   -0.0000000
 C   -3.5141607   -7.1974556    0.0000000  0.00   -0.0001544    0.0013227   -0.0000000
 C   -3.6463268   -2.3459506    0.0000000  0.00    0.0022207    0.0021723   -0.0000000
 C   -2.8659341   -3.4993045    0.0000000  0.00   -0.0003238   -0.0000467   -0.0000000
 C   -2.9852468   -1.1220822    0.0000000  0.00   -0.0001814   -0.0021511   -0.0000000
 C   -1.4155337   -5.8546492    0.0000000  0.00    0.0010226    0.0000067   -0.0000000
 C   -0.7129036   -7.0775135    0.0000000  0.00   -0.0005333   -0.0001890   -0.0000000
 C   -2.7595519   -8.3672706    0.0000000  0.00   -0.0012712   -0.0001086   -0.0000000
 C   -1.4019152   -8.3011529    0.0000000  0.00    0.0010391    0.0003716   -0.0000000
 C   -1.4211535   -3.3360316    0.0000000  0.00    0.0002006    0.0012192   -0.0000000
 C   -0.7118191   -4.5760813    0.0000000  0.00   -0.0003966    0.0002951   -0.0000000
 C   -1.5836783   -0.7942999    0.0000000  0.00    0.0023138    0.0022550   -0.0000000
 C   -0.7339909   -1.9974844    0.0000000  0.00    0.0007091    0.0019269   -0.0000000
 H   -8.8679351   -7.3602273    0.0000000  0.00    0.0006093   -0.0002695   -0.0000000
 H   -7.5631503   -9.4728627    0.0000000  0.00    0.0000558   -0.0002241   -0.0000000
 H   -5.1322402   -9.4220187    0.0000000  0.00   -0.0000046   -0.0003632   -0.0000000
 H   -8.9261566   -4.9401272    0.0000000  0.00    0.0013801    0.0000145   -0.0000000
 H   -9.0182031   -2.5173106    0.0000000  0.00    0.0003937    0.0006350   -0.0000000
 H   -3.2257536   -9.3491666    0.0000000  0.00   -0.0003704    0.0014959   -0.0000000
 H   -0.8693660   -9.2460787    0.0000000  0.00    0.0007711   -0.0004762   -0.0000000
