148
 Energy =   -4513.3834325740
 C    7.1123412   -6.0970320    0.0000000  0.00    0.0005423    0.0004078   -0.0000000
 C    5.6785158   -6.0551635    0.0000000  0.00    0.0004513   -0.0002894   -0.0000000
 C    7.7699927   -7.3459220    0.0000000  0.00   -0.0003625   -0.0008062   -0.0000000
 C    4.9554441   -7.2640225    0.0000000  0.00   -0.0008334   -0.0001783   -0.0000000
 C    7.0460740   -8.5174297    0.0000000  0.00   -0.0008744    0.0001348   -0.0000000
 C    5.6546135   -8.4806572    0.0000000  0.00   -0.0005516   -0.0005015   -0.0000000
 C    7.2042971   -3.6628233    0.0000000  0.00    0.0004762    0.0006434   -0.0000000
 C    5.7587544   -3.6274121    0.0000000  0.00    0.0019643    0.0000824   -0.0000000
 C    7.8384641   -4.9035354    0.0000000  0.00    0.0006755    0.0007261   -0.0000000
 C    4.9982413   -4.8047248    0.0000000  0.00   -0.0003858   -0.0009182   -0.0000000
 C    7.3114129   -1.2273899    0.0000000  0.00    0.0002326    0.0008427   -0.0000000
 C    5.8709540   -1.2191671    0.0000000  0.00   -0.0000303   -0.0001779   -0.0000000
 C    7.9427870   -2.4701452    0.0000000  0.00    0.0005501    0.0004738   -0.0000000
 C    5.0931717   -2.3909644    0.0000000  0.00    0.0004585   -0.0001257   -0.0000000
 C    7.9930424    0.0000000    0.0000000  0.00   -0.0000297   -0.0000000   -0.0000000
 C    5.1939009    0.0000000    0.0000000  0.00    0.0002204   -0.0000000   -0.0000000
 C    3.5598962   -4.7322406    0.0000000  0.00    0.0003053   -0.0000934   -0.0000000
 C    2.8320311   -5.9429539    0.0000000  0.00   -0.0008942    0.0001829   -0.0000000
 C    3.5124008   -7.1935573    0.0000000  0.00   -0.0001582   -0.0002583   -0.0000000
 C    3.6503985   -2.3348001    0.0000000  0.00   -0.0000030   -0.0005294   -0.0000000
 C    2.8633847   -3.4959697    0.0000000  0.00   -0.0005874    0.0001015   -0.0000000
 C    3.8040734    0.0000000    0.0000000  0.00    0.0001204   -0.0000000   -0.0000000
 C    3.0008430   -1.1130595    0.0000000  0.00    0.0001118   -0.0000864   -0.0000000
 C    1.4149384   -5.8552844    0.0000000  0.00   -0.0006218   -0.0009730   -0.0000000
 C    0.7118622   -7.0775320    0.0000000  0.00    0.0001642   -0.0003902   -0.0000000
 C    2.7584968   -8.3668642    0.0000000  0.00   -0.0002984    0.0002439   -0.0000000
 C    1.4022056   -8.3028621    0.0000000  0.00    0.0007397   -0.0004254   -0.0000000
 C    1.4170658   -3.3342097    0.0000000  0.00   -0.0008713    0.0000754   -0.0000000
 C    0.7097091   -4.5761371    0.0000000  0.00    0.0000507   -0.0005227   -0.0000000
 C    1.5822364   -0.7471507    0.0000000  0.00    0.0004674    0.0005966   -0.0000000
 C    0.7149371   -2.0033955    0.0000000  0.00   -0.0000635    0.0003337   -0.0000000
 H    8.8539268   -7.3655188    0.0000000  0.00   -0.0000208   -0.0004423   -0.0000000
 H    7.5557338   -9.4738287    0.0000000  0.00    0.0000240   -0.0005941   -0.0000000
 H    5.1227384   -9.4203091    0.0000000  0.00   -0.0005162   -0.0009576   -0.0000000
 H    8.9224364   -4.9448240    0.0000000  0.00    0.0006541    0.0006358   -0.0000000
 H    9.0260523   -2.5248907    0.0000000  0.00   -0.0003682    0.0001096   -0.0000000
 H    9.0775102    0.0000000    0.0000000  0.00   -0.0001974   -0.0000000   -0.0000000
 H    3.2354533   -9.3348329    0.0000000  0.00   -0.0006635   -0.0001676   -0.0000000
 H    0.8638878   -9.2346906    0.0000000  0.00   -0.0003223    0.0006488   -0.0000000
 C   -7.1123412    6.0970320    0.0000000  0.00   -0.0005423   -0.0004078   -0.0000000
 C   -5.6785158    6.0551635    0.0000000  0.00   -0.0004513    0.0002894   -0.0000000
 C   -7.7699927    7.3459220    0.0000000  0.00    0.0003625    0.0008062   -0.0000000
 C   -4.9554441    7.2640225    0.0000000  0.00    0.0008334    0.0001783   -0.0000000
 C   -7.0460740    8.5174297    0.0000000  0.00    0.0008744   -0.0001348   -0.0000000
 C   -5.6546135    8.4806572    0.0000000  0.00    0.0005516    0.0005015   -0.0000000
 C   -7.2042971    3.6628233    0.0000000  0.00   -0.0004762   -0.0006434   -0.0000000
 C   -5.7587544    3.6274121    0.0000000  0.00   -0.0019643   -0.0000824   -0.0000000
 C   -7.8384641    4.9035354    0.0000000  0.00   -0.0006755   -0.0007261   -0.0000000
 C   -4.9982413    4.8047248    0.0000000  0.00    0.0003858    0.0009182   -0.0000000
 C   -7.3114129    1.2273899    0.0000000  0.00   -0.0002326   -0.0008427   -0.0000000
 C   -5.8709540    1.2191671    0.0000000  0.00    0.0000303    0.0001779   -0.0000000
 C   -7.9427870    2.4701452    0.0000000  0.00   -0.0005501   -0.0004738   -0.0000000
 C   -5.0931717    2.3909644    0.0000000  0.00   -0.0004585    0.0001257   -0.0000000
 C   -7.9930424    0.0000000    0.0000000  0.00    0.0000297   -0.0000000   -0.0000000
 C   -5.1939009    0.0000000    0.0000000  0.00   -0.0002204   -0.0000000   -0.0000000
 C   -3.5598962    4.7322406    0.0000000  0.00   -0.0003053    0.0000934   -0.0000000
 C   -2.8320311    5.9429539    0.0000000  0.00    0.0008942   -0.0001829   -0.0000000
 C   -3.5124008    7.1935573    0.0000000  0.00    0.0001582    0.0002583   -0.0000000
 C   -3.6503985    2.3348001    0.0000000  0.00    0.0000030    0.0005294   -0.0000000
 C   -2.8633847    3.4959697    0.0000000  0.00    0.0005874   -0.0001015   -0.0000000
 C   -3.8040734    0.0000000    0.0000000  0.00   -0.0001204   -0.0000000   -0.0000000
 C   -3.0008430    1.1130595    0.0000000  0.00   -0.0001118    0.0000864   -0.0000000
 C   -1.4149384    5.8552844    0.0000000  0.00    0.0006218    0.0009730   -0.0000000
 C   -0.7118622    7.0775320    0.0000000  0.00   -0.0001642    0.0003902   -0.0000000
 C   -2.7584968    8.3668642    0.0000000  0.00    0.0002984   -0.0002439   -0.0000000
 C   -1.4022056    8.3028621    0.0000000  0.00   -0.0007397    0.0004254   -0.0000000
 C   -1.4170658    3.3342097    0.0000000  0.00    0.0008713   -0.0000754   -0.0000000
 C   -0.7097091    4.5761371    0.0000000  0.00   -0.0000507    0.0005227   -0.0000000
 C   -1.5822364    0.7471507    0.0000000  0.00   -0.0004674   -0.0005966   -0.0000000
 C   -0.7149371    2.0033955    0.0000000  0.00    0.0000635   -0.0003337   -0.0000000
 H   -8.8539268    7.3655188    0.0000000  0.00    0.0000208    0.0004423   -0.0000000
 H   -7.5557338    9.4738287    0.0000000  0.00   -0.0000240    0.0005941   -0.0000000
 H   -5.1227384    9.4203091    0.0000000  0.00    0.0005162    0.0009576   -0.0000000
 H   -8.9224364    4.9448240    0.0000000  0.00   -0.0006541   -0.0006358   -0.0000000
 H   -9.0260523    2.5248907    0.0000000  0.00    0.0003682   -0.0001096   -0.0000000
 H   -9.0775102    0.0000000    0.0000000  0.00    0.0001974   -0.0000000   -0.0000000
 H   -3.2354533    9.3348329    0.0000000  0.00    0.0006635    0.0001676   -0.0000000
 H   -0.8638878    9.2346906    0.0000000  0.00    0.0003223   -0.0006488   -0.0000000
 C    7.1123412    6.0970320    0.0000000  0.00    0.0005423   -0.0004078   -0.0000000
 C    5.6785158    6.0551635    0.0000000  0.00    0.0004513    0.0002894   -0.0000000
 C    7.7699927    7.3459220    0.0000000  0.00   -0.0003625    0.0008062   -0.0000000
 C    4.9554441    7.2640225    0.0000000  0.00   -0.0008334    0.0001783   -0.0000000
 C    7.0460740    8.5174297    0.0000000  0.00   -0.0008744   -0.0001348   -0.0000000
 C    5.6546135    8.4806572    0.0000000  0.00   -0.0005516    0.0005015   -0.0000000
 C    7.2042971    3.6628233    0.0000000  0.00    0.0004762   -0.0006434   -0.0000000
 C    5.7587544    3.6274121    0.0000000  0.00    0.0019643   -0.0000824   -0.0000000
 C    7.8384641    4.9035354    0.0000000  0.00    0.0006755   -0.0007261   -0.0000000
 C    4.9982413    4.8047248    0.0000000  0.00   -0.0003858    0.0009182   -0.0000000
 C    7.3114129    1.2273899    0.0000000  0.00    0.0002326   -0.0008427   -0.0000000
 C    5.8709540    1.2191671    0.0000000  0.00   -0.0000303    0.0001779   -0.0000000
 C    7.9427870    2.4701452    0.0000000  0.00    0.0005501   -0.0004738   -0.0000000
 C    5.0931717    2.3909644    0.0000000  0.00    0.0004585    0.0001257   -0.0000000
 C    3.5598962    4.7322406    0.0000000  0.00    0.0003053    0.0000934   -0.0000000
 C    2.8320311    5.9429539    0.0000000  0.00   -0.0008942   -0.0001829   -0.0000000
 C    3.5124008    7.1935573    0.0000000  0.00   -0.0001582    0.0002583   -0.0000000
 C    3.6503985    2.3348001    0.0000000  0.00   -0.0000030    0.0005294   -0.0000000
 C    2.8633847    3.4959697    0.0000000  0.00   -0.0005874   -0.0001015   -0.0000000
 C    3.0008430    1.1130595    0.0000000  0.00    0.0001118    0.0000864   -0.0000000
 C    1.4149384    5.8552844    0.0000000  0.00   -0.0006218    0.0009730   -0.0000000
 C    0.7118622    7.0775320    0.0000000  0.00    0.0001642    0.0003902   -0.0000000
 C    2.7584968    8.3668642    0.0000000  0.00   -0.0002984   -0.0002439   -0.0000000
 C    1.4022056    8.3028621    0.0000000  0.00    0.0007397    0.0004254   -0.0000000
 C    1.4170658    3.3342097    0.0000000  0.00   -0.0008713   -0.0000754   -0.0000000
 C    0.7097091    4.5761371    0.0000000  0.00    0.0000507    0.0005227   -0.0000000
 C    1.5822364    0.7471507    0.0000000  0.00    0.0004674   -0.0005966   -0.0000000
 C    0.7149371    2.0033955    0.0000000  0.00   -0.0000635   -0.0003337   -0.0000000
 H    8.8539268    7.3655188    0.0000000  0.00   -0.0000208    0.0004423   -0.0000000
 H    7.5557338    9.4738287    0.0000000  0.00    0.0000240    0.0005941   -0.0000000
 H    5.1227384    9.4203091    0.0000000  0.00   -0.0005162    0.0009576   -0.0000000
 H    8.9224364    4.9448240    0.0000000  0.00    0.0006541   -0.0006358   -0.0000000
 H    9.0260523    2.5248907    0.0000000  0.00   -0.0003682   -0.0001096   -0.0000000
 H    3.2354533    9.3348329    0.0000000  0.00   -0.0006635    0.0001676   -0.0000000
 H    0.8638878    9.2346906    0.0000000  0.00   -0.0003223   -0.0006488   -0.0000000
 C   -7.1123412   -6.0970320    0.0000000  0.00   -0.0005423    0.0004078   -0.0000000
 C   -5.6785158   -6.0551635    0.0000000  0.00   -0.0004513   -0.0002894   -0.0000000
 C   -7.7699927   -7.3459220    0.0000000  0.00    0.0003625   -0.0008062   -0.0000000
 C   -4.9554441   -7.2640225    0.0000000  0.00    0.0008334   -0.0001783   -0.0000000
 C   -7.0460740   -8.5174297    0.0000000  0.00    0.0008744    0.0001348   -0.0000000
 C   -5.6546135   -8.4806572    0.0000000  0.00    0.0005516   -0.0005015   -0.0000000
 C   -7.2042971   -3.6628233    0.0000000  0.00   -0.0004762    0.0006434   -0.0000000
 C   -5.7587544   -3.6274121    0.0000000  0.00   -0.0019643    0.0000824   -0.0000000
 C   -7.8384641   -4.9035354    0.0000000  0.00   -0.0006755    0.0007261   -0.0000000
 C   -4.9982413   -4.8047248    0.0000000  0.00    0.0003858   -0.0009182   -0.0000000
 C   -7.3114129   -1.2273899    0.0000000  0.00   -0.0002326    0.0008427   -0.0000000
 C   -5.8709540   -1.2191671    0.0000000  0.00    0.0000303   -0.0001779   -0.0000000
 C   -7.9427870   -2.4701452    0.0000000  0.00   -0.0005501    0.0004738   -0.0000000
 C   -5.0931717   -2.3909644    0.0000000  0.00   -0.0004585   -0.0001257   -0.0000000
 C   -3.5598962   -4.7322406    0.0000000  0.00   -0.0003053   -0.0000934   -0.0000000
 C   -2.8320311   -5.9429539    0.0000000  0.00    0.0008942    0.0001829   -0.0000000
 C   -3.5124008   -7.1935573    0.0000000  0.00    0.0001582   -0.0002583   -0.0000000
 C   -3.6503985   -2.3348001    0.0000000  0.00    0.0000030   -0.0005294   -0.0000000
 C   -2.8633847   -3.4959697    0.0000000  0.00    0.0005874    0.0001015   -0.0000000
 C   -3.0008430   -1.1130595    0.0000000  0.00   -0.0001118   -0.0000864   -0.0000000
 C   -1.4149384   -5.8552844    0.0000000  0.00    0.0006218   -0.0009730   -0.0000000
 C   -0.7118622   -7.0775320    0.0000000  0.00   -0.0001642   -0.0003902   -0.0000000
 C   -2.7584968   -8.3668642    0.0000000  0.00    0.0002984    0.0002439   -0.0000000
 C   -1.4022056   -8.3028621    0.0000000  0.00   -0.0007397   -0.0004254   -0.0000000
 C   -1.4170658   -3.3342097    0.0000000  0.00    0.0008713    0.0000754   -0.0000000
 C   -0.7097091   -4.5761371    0.0000000  0.00   -0.0000507   -0.0005227   -0.0000000
 C   -1.5822364   -0.7471507    0.0000000  0.00   -0.0004674    0.0005966   -0.0000000
 C   -0.7149371   -2.0033955    0.0000000  0.00    0.0000635    0.0003337   -0.0000000
 H   -8.8539268   -7.3655188    0.0000000  0.00    0.0000208   -0.0004423   -0.0000000
 H   -7.5557338   -9.4738287    0.0000000  0.00   -0.0000240   -0.0005941   -0.0000000
 H   -5.1227384   -9.4203091    0.0000000  0.00    0.0005162   -0.0009576   -0.0000000
 H   -8.9224364   -4.9448240    0.0000000  0.00   -0.0006541    0.0006358   -0.0000000
 H   -9.0260523   -2.5248907    0.0000000  0.00    0.0003682    0.0001096   -0.0000000
 H   -3.2354533   -9.3348329    0.0000000  0.00    0.0006635   -0.0001676   -0.0000000
 H   -0.8638878   -9.2346906    0.0000000  0.00    0.0003223    0.0006488   -0.0000000
