148
 Energy =   -4513.2629159480
 C    7.1135861   -6.0962049    0.0000000  0.00    0.0004094    0.0006807   -0.0000000
 C    5.6823526   -6.0552349    0.0000000  0.00   -0.0000405    0.0013407   -0.0000000
 C    7.7794074   -7.3402150    0.0000000  0.00   -0.0015808    0.0008978   -0.0000000
 C    4.9610446   -7.2655866    0.0000000  0.00    0.0014568    0.0004481   -0.0000000
 C    7.0580571   -8.5093741    0.0000000  0.00    0.0017755    0.0024619   -0.0000000
 C    5.6664648   -8.4753432    0.0000000  0.00    0.0002512    0.0008501   -0.0000000
 C    7.1966785   -3.6658364    0.0000000  0.00   -0.0009319    0.0019461   -0.0000000
 C    5.7545479   -3.6293145    0.0000000  0.00   -0.0000559   -0.0022510   -0.0000000
 C    7.8384644   -4.8990699    0.0000000  0.00    0.0006265    0.0007456   -0.0000000
 C    4.9979335   -4.8070786    0.0000000  0.00    0.0002862    0.0013589   -0.0000000
 C    7.2940149   -1.2293991    0.0000000  0.00   -0.0020930   -0.0003869   -0.0000000
 C    5.8543379   -1.2199156    0.0000000  0.00   -0.0011426   -0.0005043   -0.0000000
 C    7.9347720   -2.4664494    0.0000000  0.00    0.0003279   -0.0014284   -0.0000000
 C    5.0842264   -2.3945403    0.0000000  0.00   -0.0011806   -0.0001584   -0.0000000
 C    7.9789014    0.0000000    0.0000000  0.00    0.0013533   -0.0000000   -0.0000000
 C    5.1754000    0.0000000    0.0000000  0.00   -0.0023838   -0.0000000   -0.0000000
 C    3.5616739   -4.7390688    0.0000000  0.00    0.0011438   -0.0016934   -0.0000000
 C    2.8340892   -5.9459813    0.0000000  0.00    0.0007927   -0.0001746   -0.0000000
 C    3.5153583   -7.1966371    0.0000000  0.00   -0.0001533   -0.0001383   -0.0000000
 C    3.6461154   -2.3458820    0.0000000  0.00   -0.0005968   -0.0020663   -0.0000000
 C    2.8654924   -3.4996458    0.0000000  0.00   -0.0004716    0.0017289   -0.0000000
 C    3.7842109    0.0000000    0.0000000  0.00    0.0007288   -0.0000000   -0.0000000
 C    2.9851905   -1.1219669    0.0000000  0.00   -0.0026549    0.0005459   -0.0000000
 C    1.4151025   -5.8560566    0.0000000  0.00    0.0009112    0.0002839   -0.0000000
 C    0.7130226   -7.0782563    0.0000000  0.00    0.0023921   -0.0008394   -0.0000000
 C    2.7627664   -8.3679930    0.0000000  0.00    0.0011582    0.0002746   -0.0000000
 C    1.4043672   -8.3007246    0.0000000  0.00   -0.0007613    0.0008512   -0.0000000
 C    1.4210394   -3.3367477    0.0000000  0.00   -0.0002037    0.0001829   -0.0000000
 C    0.7114277   -4.5767631    0.0000000  0.00    0.0000520    0.0003489   -0.0000000
 C    1.5830690   -0.7941552    0.0000000  0.00   -0.0021091    0.0009916   -0.0000000
 C    0.7337764   -1.9980519    0.0000000  0.00    0.0012134    0.0018976   -0.0000000
 H    8.8693452   -7.3524217    0.0000000  0.00    0.0009673   -0.0009361   -0.0000000
 H    7.5670885   -9.4729035    0.0000000  0.00    0.0012981   -0.0009359   -0.0000000
 H    5.1411721   -9.4278095    0.0000000  0.00    0.0009634    0.0004859   -0.0000000
 H    8.9257294   -4.9409770    0.0000000  0.00   -0.0007947    0.0008702   -0.0000000
 H    9.0189231   -2.5190661    0.0000000  0.00   -0.0012513    0.0019226   -0.0000000
 H    9.0632932    0.0000000    0.0000000  0.00   -0.0004283   -0.0000000   -0.0000000
 H    3.2389337   -9.3402972    0.0000000  0.00   -0.0004654   -0.0007311   -0.0000000
 H    0.8671963   -9.2337219    0.0000000  0.00   -0.0001616   -0.0005625   -0.0000000
 C   -7.1135861    6.0962049    0.0000000  0.00   -0.0004094   -0.0006807   -0.0000000
 C   -5.6823526    6.0552349    0.0000000  0.00    0.0000405   -0.0013407   -0.0000000
 C   -7.7794074    7.3402150    0.0000000  0.00    0.0015808   -0.0008978   -0.0000000
 C   -4.9610446    7.2655866    0.0000000  0.00   -0.0014568   -0.0004481   -0.0000000
 C   -7.0580571    8.5093741    0.0000000  0.00   -0.0017755   -0.0024619   -0.0000000
 C   -5.6664648    8.4753432    0.0000000  0.00   -0.0002512   -0.0008501   -0.0000000
 C   -7.1966785    3.6658364    0.0000000  0.00    0.0009319   -0.0019461   -0.0000000
 C   -5.7545479    3.6293145    0.0000000  0.00    0.0000559    0.0022510   -0.0000000
 C   -7.8384644    4.8990699    0.0000000  0.00   -0.0006265   -0.0007456   -0.0000000
 C   -4.9979335    4.8070786    0.0000000  0.00   -0.0002862   -0.0013589   -0.0000000
 C   -7.2940149    1.2293991    0.0000000  0.00    0.0020930    0.0003869   -0.0000000
 C   -5.8543379    1.2199156    0.0000000  0.00    0.0011426    0.0005043   -0.0000000
 C   -7.9347720    2.4664494    0.0000000  0.00   -0.0003279    0.0014284   -0.0000000
 C   -5.0842264    2.3945403    0.0000000  0.00    0.0011806    0.0001584   -0.0000000
 C   -7.9789014    0.0000000    0.0000000  0.00   -0.0013533   -0.0000000   -0.0000000
 C   -5.1754000    0.0000000    0.0000000  0.00    0.0023838   -0.0000000   -0.0000000
 C   -3.5616739    4.7390688    0.0000000  0.00   -0.0011438    0.0016934   -0.0000000
 C   -2.8340892    5.9459813    0.0000000  0.00   -0.0007927    0.0001746   -0.0000000
 C   -3.5153583    7.1966371    0.0000000  0.00    0.0001533    0.0001383   -0.0000000
 C   -3.6461154    2.3458820    0.0000000  0.00    0.0005968    0.0020663   -0.0000000
 C   -2.8654924    3.4996458    0.0000000  0.00    0.0004716   -0.0017289   -0.0000000
 C   -3.7842109    0.0000000    0.0000000  0.00   -0.0007288   -0.0000000   -0.0000000
 C   -2.9851905    1.1219669    0.0000000  0.00    0.0026549   -0.0005459   -0.0000000
 C   -1.4151025    5.8560566    0.0000000  0.00   -0.0009112   -0.0002839   -0.0000000
 C   -0.7130226    7.0782563    0.0000000  0.00   -0.0023921    0.0008394   -0.0000000
 C   -2.7627664    8.3679930    0.0000000  0.00   -0.0011582   -0.0002746   -0.0000000
 C   -1.4043672    8.3007246    0.0000000  0.00    0.0007613   -0.0008512   -0.0000000
 C   -1.4210394    3.3367477    0.0000000  0.00    0.0002037   -0.0001829   -0.0000000
 C   -0.7114277    4.5767631    0.0000000  0.00   -0.0000520   -0.0003489   -0.0000000
 C   -1.5830690    0.7941552    0.0000000  0.00    0.0021091   -0.0009916   -0.0000000
 C   -0.7337764    1.9980519    0.0000000  0.00   -0.0012134   -0.0018976   -0.0000000
 H   -8.8693452    7.3524217    0.0000000  0.00   -0.0009673    0.0009361   -0.0000000
 H   -7.5670885    9.4729035    0.0000000  0.00   -0.0012981    0.0009359   -0.0000000
 H   -5.1411721    9.4278095    0.0000000  0.00   -0.0009634   -0.0004859   -0.0000000
 H   -8.9257294    4.9409770    0.0000000  0.00    0.0007947   -0.0008702   -0.0000000
 H   -9.0189231    2.5190661    0.0000000  0.00    0.0012513   -0.0019226   -0.0000000
 H   -9.0632932    0.0000000    0.0000000  0.00    0.0004283   -0.0000000   -0.0000000
 H   -3.2389337    9.3402972    0.0000000  0.00    0.0004654    0.0007311   -0.0000000
 H   -0.8671963    9.2337219    0.0000000  0.00    0.0001616    0.0005625   -0.0000000
 C    7.1135861    6.0962049    0.0000000  0.00    0.0004094   -0.0006807   -0.0000000
 C    5.6823526    6.0552349    0.0000000  0.00   -0.0000405   -0.0013407   -0.0000000
 C    7.7794074    7.3402150    0.0000000  0.00   -0.0015808   -0.0008978   -0.0000000
 C    4.9610446    7.2655866    0.0000000  0.00    0.0014568   -0.0004481   -0.0000000
 C    7.0580571    8.5093741    0.0000000  0.00    0.0017755   -0.0024619   -0.0000000
 C    5.6664648    8.4753432    0.0000000  0.00    0.0002512   -0.0008501   -0.0000000
 C    7.1966785    3.6658364    0.0000000  0.00   -0.0009319   -0.0019461   -0.0000000
 C    5.7545479    3.6293145    0.0000000  0.00   -0.0000559    0.0022510   -0.0000000
 C    7.8384644    4.8990699    0.0000000  0.00    0.0006265   -0.0007456   -0.0000000
 C    4.9979335    4.8070786    0.0000000  0.00    0.0002862   -0.0013589   -0.0000000
 C    7.2940149    1.2293991    0.0000000  0.00   -0.0020930    0.0003869   -0.0000000
 C    5.8543379    1.2199156    0.0000000  0.00   -0.0011426    0.0005043   -0.0000000
 C    7.9347720    2.4664494    0.0000000  0.00    0.0003279    0.0014284   -0.0000000
 C    5.0842264    2.3945403    0.0000000  0.00   -0.0011806    0.0001584   -0.0000000
 C    3.5616739    4.7390688    0.0000000  0.00    0.0011438    0.0016934   -0.0000000
 C    2.8340892    5.9459813    0.0000000  0.00    0.0007927    0.0001746   -0.0000000
 C    3.5153583    7.1966371    0.0000000  0.00   -0.0001533    0.0001383   -0.0000000
 C    3.6461154    2.3458820    0.0000000  0.00   -0.0005968    0.0020663   -0.0000000
 C    2.8654924    3.4996458    0.0000000  0.00   -0.0004716   -0.0017289   -0.0000000
 C    2.9851905    1.1219669    0.0000000  0.00   -0.0026549   -0.0005459   -0.0000000
 C    1.4151025    5.8560566    0.0000000  0.00    0.0009112   -0.0002839   -0.0000000
 C    0.7130226    7.0782563    0.0000000  0.00    0.0023921    0.0008394   -0.0000000
 C    2.7627664    8.3679930    0.0000000  0.00    0.0011582   -0.0002746   -0.0000000
 C    1.4043672    8.3007246    0.0000000  0.00   -0.0007613   -0.0008512   -0.0000000
 C    1.4210394    3.3367477    0.0000000  0.00   -0.0002037   -0.0001829   -0.0000000
 C    0.7114277    4.5767631    0.0000000  0.00    0.0000520   -0.0003489   -0.0000000
 C    1.5830690    0.7941552    0.0000000  0.00   -0.0021091   -0.0009916   -0.0000000
 C    0.7337764    1.9980519    0.0000000  0.00    0.0012134   -0.0018976   -0.0000000
 H    8.8693452    7.3524217    0.0000000  0.00    0.0009673    0.0009361   -0.0000000
 H    7.5670885    9.4729035    0.0000000  0.00    0.0012981    0.0009359   -0.0000000
 H    5.1411721    9.4278095    0.0000000  0.00    0.0009634   -0.0004859   -0.0000000
 H    8.9257294    4.9409770    0.0000000  0.00   -0.0007947   -0.0008702   -0.0000000
 H    9.0189231    2.5190661    0.0000000  0.00   -0.0012513   -0.0019226   -0.0000000
 H    3.2389337    9.3402972    0.0000000  0.00   -0.0004654    0.0007311   -0.0000000
 H    0.8671963    9.2337219    0.0000000  0.00   -0.0001616    0.0005625   -0.0000000
 C   -7.1135861   -6.0962049    0.0000000  0.00   -0.0004094    0.0006807   -0.0000000
 C   -5.6823526   -6.0552349    0.0000000  0.00    0.0000405    0.0013407   -0.0000000
 C   -7.7794074   -7.3402150    0.0000000  0.00    0.0015808    0.0008978   -0.0000000
 C   -4.9610446   -7.2655866    0.0000000  0.00   -0.0014568    0.0004481   -0.0000000
 C   -7.0580571   -8.5093741    0.0000000  0.00   -0.0017755    0.0024619   -0.0000000
 C   -5.6664648   -8.4753432    0.0000000  0.00   -0.0002512    0.0008501   -0.0000000
 C   -7.1966785   -3.6658364    0.0000000  0.00    0.0009319    0.0019461   -0.0000000
 C   -5.7545479   -3.6293145    0.0000000  0.00    0.0000559   -0.0022510   -0.0000000
 C   -7.8384644   -4.8990699    0.0000000  0.00   -0.0006265    0.0007456   -0.0000000
 C   -4.9979335   -4.8070786    0.0000000  0.00   -0.0002862    0.0013589   -0.0000000
 C   -7.2940149   -1.2293991    0.0000000  0.00    0.0020930   -0.0003869   -0.0000000
 C   -5.8543379   -1.2199156    0.0000000  0.00    0.0011426   -0.0005043   -0.0000000
 C   -7.9347720   -2.4664494    0.0000000  0.00   -0.0003279   -0.0014284   -0.0000000
 C   -5.0842264   -2.3945403    0.0000000  0.00    0.0011806   -0.0001584   -0.0000000
 C   -3.5616739   -4.7390688    0.0000000  0.00   -0.0011438   -0.0016934   -0.0000000
 C   -2.8340892   -5.9459813    0.0000000  0.00   -0.0007927   -0.0001746   -0.0000000
 C   -3.5153583   -7.1966371    0.0000000  0.00    0.0001533   -0.0001383   -0.0000000
 C   -3.6461154   -2.3458820    0.0000000  0.00    0.0005968   -0.0020663   -0.0000000
 C   -2.8654924   -3.4996458    0.0000000  0.00    0.0004716    0.0017289   -0.0000000
 C   -2.9851905   -1.1219669    0.0000000  0.00    0.0026549    0.0005459   -0.0000000
 C   -1.4151025   -5.8560566    0.0000000  0.00   -0.0009112    0.0002839   -0.0000000
 C   -0.7130226   -7.0782563    0.0000000  0.00   -0.0023921   -0.0008394   -0.0000000
 C   -2.7627664   -8.3679930    0.0000000  0.00   -0.0011582    0.0002746   -0.0000000
 C   -1.4043672   -8.3007246    0.0000000  0.00    0.0007613    0.0008512   -0.0000000
 C   -1.4210394   -3.3367477    0.0000000  0.00    0.0002037    0.0001829   -0.0000000
 C   -0.7114277   -4.5767631    0.0000000  0.00   -0.0000520    0.0003489   -0.0000000
 C   -1.5830690   -0.7941552    0.0000000  0.00    0.0021091    0.0009916   -0.0000000
 C   -0.7337764   -1.9980519    0.0000000  0.00   -0.0012134    0.0018976   -0.0000000
 H   -8.8693452   -7.3524217    0.0000000  0.00   -0.0009673   -0.0009361   -0.0000000
 H   -7.5670885   -9.4729035    0.0000000  0.00   -0.0012981   -0.0009359   -0.0000000
 H   -5.1411721   -9.4278095    0.0000000  0.00   -0.0009634    0.0004859   -0.0000000
 H   -8.9257294   -4.9409770    0.0000000  0.00    0.0007947    0.0008702   -0.0000000
 H   -9.0189231   -2.5190661    0.0000000  0.00    0.0012513    0.0019226   -0.0000000
 H   -3.2389337   -9.3402972    0.0000000  0.00    0.0004654   -0.0007311   -0.0000000
 H   -0.8671963   -9.2337219    0.0000000  0.00    0.0001616   -0.0005625   -0.0000000
