148
 Energy =   -4513.4160716990
 C    7.1245019   -6.0967281    0.0000000  0.00    0.0005051    0.0005971   -0.0000000
 C    5.6892789   -6.0571683    0.0000000  0.00   -0.0004769   -0.0011275   -0.0000000
 C    7.7855929   -7.3466127    0.0000000  0.00   -0.0003553    0.0018091   -0.0000000
 C    4.9658217   -7.2669465    0.0000000  0.00    0.0006047    0.0002731   -0.0000000
 C    7.0617692   -8.5154204    0.0000000  0.00    0.0011727    0.0016544   -0.0000000
 C    5.6675414   -8.4789845    0.0000000  0.00    0.0013407    0.0004818   -0.0000000
 C    7.2031147   -3.6626949    0.0000000  0.00    0.0004339    0.0002326   -0.0000000
 C    5.7583571   -3.6293463    0.0000000  0.00   -0.0002085   -0.0008328   -0.0000000
 C    7.8463001   -4.9008942    0.0000000  0.00   -0.0016004   -0.0006872   -0.0000000
 C    5.0035228   -4.8086230    0.0000000  0.00   -0.0014254    0.0004681   -0.0000000
 C    7.2912242   -1.2272918    0.0000000  0.00   -0.0001714   -0.0017769   -0.0000000
 C    5.8530063   -1.2195079    0.0000000  0.00   -0.0001987    0.0005015   -0.0000000
 C    7.9346203   -2.4657427    0.0000000  0.00   -0.0016129   -0.0017727   -0.0000000
 C    5.0859782   -2.3953616    0.0000000  0.00   -0.0002375    0.0009463   -0.0000000
 C    7.9751658    0.0000000    0.0000000  0.00    0.0023338   -0.0000000   -0.0000000
 C    5.1740148    0.0000000    0.0000000  0.00   -0.0002524   -0.0000000   -0.0000000
 C    3.5659350   -4.7409910    0.0000000  0.00    0.0004606   -0.0010547   -0.0000000
 C    2.8382307   -5.9452835    0.0000000  0.00   -0.0000753    0.0020578   -0.0000000
 C    3.5187463   -7.1970773    0.0000000  0.00    0.0014832   -0.0011811   -0.0000000
 C    3.6474394   -2.3475178    0.0000000  0.00   -0.0015946    0.0006672   -0.0000000
 C    2.8682694   -3.5015963    0.0000000  0.00    0.0007888    0.0021058   -0.0000000
 C    3.7830111    0.0000000    0.0000000  0.00   -0.0003875   -0.0000000   -0.0000000
 C    2.9847465   -1.1236688    0.0000000  0.00    0.0001352   -0.0007275   -0.0000000
 C    1.4172938   -5.8545145    0.0000000  0.00    0.0010608   -0.0016089   -0.0000000
 C    0.7141477   -7.0776488    0.0000000  0.00   -0.0026953   -0.0006940   -0.0000000
 C    2.7637773   -8.3648683    0.0000000  0.00    0.0009480   -0.0007585   -0.0000000
 C    1.4037204   -8.2987917    0.0000000  0.00    0.0002198   -0.0017303   -0.0000000
 C    1.4230116   -3.3385108    0.0000000  0.00    0.0000012    0.0002007   -0.0000000
 C    0.7135563   -4.5770007    0.0000000  0.00    0.0002354    0.0000303   -0.0000000
 C    1.5821302   -0.7997035    0.0000000  0.00    0.0002319    0.0000459   -0.0000000
 C    0.7364926   -1.9961337    0.0000000  0.00    0.0003192    0.0008787   -0.0000000
 H    8.8694552   -7.3655443    0.0000000  0.00    0.0005351    0.0014065   -0.0000000
 H    7.5698912   -9.4728625    0.0000000  0.00    0.0000978    0.0023147   -0.0000000
 H    5.1367853   -9.4197796    0.0000000  0.00    0.0011232    0.0002476   -0.0000000
 H    8.9304542   -4.9356368    0.0000000  0.00    0.0011580   -0.0012211   -0.0000000
 H    9.0183261   -2.5103575    0.0000000  0.00    0.0013723   -0.0015956   -0.0000000
 H    9.0597692    0.0000000    0.0000000  0.00    0.0002039   -0.0000000   -0.0000000
 H    3.2375349   -9.3349650    0.0000000  0.00   -0.0008624    0.0006279   -0.0000000
 H    0.8658056   -9.2309948    0.0000000  0.00   -0.0013414   -0.0010413   -0.0000000
 C   -7.1245019    6.0967281    0.0000000  0.00   -0.0005051   -0.0005971   -0.0000000
 C   -5.6892789    6.0571683    0.0000000  0.00    0.0004769    0.0011275   -0.0000000
 C   -7.7855929    7.3466127    0.0000000  0.00    0.0003553   -0.0018091   -0.0000000
 C   -4.9658217    7.2669465    0.0000000  0.00   -0.0006047   -0.0002731   -0.0000000
 C   -7.0617692    8.5154204    0.0000000  0.00   -0.0011727   -0.0016544   -0.0000000
 C   -5.6675414    8.4789845    0.0000000  0.00   -0.0013407   -0.0004818   -0.0000000
 C   -7.2031147    3.6626949    0.0000000  0.00   -0.0004339   -0.0002326   -0.0000000
 C   -5.7583571    3.6293463    0.0000000  0.00    0.0002085    0.0008328   -0.0000000
 C   -7.8463001    4.9008942    0.0000000  0.00    0.0016004    0.0006872   -0.0000000
 C   -5.0035228    4.8086230    0.0000000  0.00    0.0014254   -0.0004681   -0.0000000
 C   -7.2912242    1.2272918    0.0000000  0.00    0.0001714    0.0017769   -0.0000000
 C   -5.8530063    1.2195079    0.0000000  0.00    0.0001987   -0.0005015   -0.0000000
 C   -7.9346203    2.4657427    0.0000000  0.00    0.0016129    0.0017727   -0.0000000
 C   -5.0859782    2.3953616    0.0000000  0.00    0.0002375   -0.0009463   -0.0000000
 C   -7.9751658    0.0000000    0.0000000  0.00   -0.0023338   -0.0000000   -0.0000000
 C   -5.1740148    0.0000000    0.0000000  0.00    0.0002524   -0.0000000   -0.0000000
 C   -3.5659350    4.7409910    0.0000000  0.00   -0.0004606    0.0010547   -0.0000000
 C   -2.8382307    5.9452835    0.0000000  0.00    0.0000753   -0.0020578   -0.0000000
 C   -3.5187463    7.1970773    0.0000000  0.00   -0.0014832    0.0011811   -0.0000000
 C   -3.6474394    2.3475178    0.0000000  0.00    0.0015946   -0.0006672   -0.0000000
 C   -2.8682694    3.5015963    0.0000000  0.00   -0.0007888   -0.0021058   -0.0000000
 C   -3.7830111    0.0000000    0.0000000  0.00    0.0003875   -0.0000000   -0.0000000
 C   -2.9847465    1.1236688    0.0000000  0.00   -0.0001352    0.0007275   -0.0000000
 C   -1.4172938    5.8545145    0.0000000  0.00   -0.0010608    0.0016089   -0.0000000
 C   -0.7141477    7.0776488    0.0000000  0.00    0.0026953    0.0006940   -0.0000000
 C   -2.7637773    8.3648683    0.0000000  0.00   -0.0009480    0.0007585   -0.0000000
 C   -1.4037204    8.2987917    0.0000000  0.00   -0.0002198    0.0017303   -0.0000000
 C   -1.4230116    3.3385108    0.0000000  0.00   -0.0000012   -0.0002007   -0.0000000
 C   -0.7135563    4.5770007    0.0000000  0.00   -0.0002354   -0.0000303   -0.0000000
 C   -1.5821302    0.7997035    0.0000000  0.00   -0.0002319   -0.0000459   -0.0000000
 C   -0.7364926    1.9961337    0.0000000  0.00   -0.0003192   -0.0008787   -0.0000000
 H   -8.8694552    7.3655443    0.0000000  0.00   -0.0005351   -0.0014065   -0.0000000
 H   -7.5698912    9.4728625    0.0000000  0.00   -0.0000978   -0.0023147   -0.0000000
 H   -5.1367853    9.4197796    0.0000000  0.00   -0.0011232   -0.0002476   -0.0000000
 H   -8.9304542    4.9356368    0.0000000  0.00   -0.0011580    0.0012211   -0.0000000
 H   -9.0183261    2.5103575    0.0000000  0.00   -0.0013723    0.0015956   -0.0000000
 H   -9.0597692    0.0000000    0.0000000  0.00   -0.0002039   -0.0000000   -0.0000000
 H   -3.2375349    9.3349650    0.0000000  0.00    0.0008624   -0.0006279   -0.0000000
 H   -0.8658056    9.2309948    0.0000000  0.00    0.0013414    0.0010413   -0.0000000
 C    7.1245019    6.0967281    0.0000000  0.00    0.0005051   -0.0005971   -0.0000000
 C    5.6892789    6.0571683    0.0000000  0.00   -0.0004769    0.0011275   -0.0000000
 C    7.7855929    7.3466127    0.0000000  0.00   -0.0003553   -0.0018091   -0.0000000
 C    4.9658217    7.2669465    0.0000000  0.00    0.0006047   -0.0002731   -0.0000000
 C    7.0617692    8.5154204    0.0000000  0.00    0.0011727   -0.0016544   -0.0000000
 C    5.6675414    8.4789845    0.0000000  0.00    0.0013407   -0.0004818   -0.0000000
 C    7.2031147    3.6626949    0.0000000  0.00    0.0004339   -0.0002326   -0.0000000
 C    5.7583571    3.6293463    0.0000000  0.00   -0.0002085    0.0008328   -0.0000000
 C    7.8463001    4.9008942    0.0000000  0.00   -0.0016004    0.0006872   -0.0000000
 C    5.0035228    4.8086230    0.0000000  0.00   -0.0014254   -0.0004681   -0.0000000
 C    7.2912242    1.2272918    0.0000000  0.00   -0.0001714    0.0017769   -0.0000000
 C    5.8530063    1.2195079    0.0000000  0.00   -0.0001987   -0.0005015   -0.0000000
 C    7.9346203    2.4657427    0.0000000  0.00   -0.0016129    0.0017727   -0.0000000
 C    5.0859782    2.3953616    0.0000000  0.00   -0.0002375   -0.0009463   -0.0000000
 C    3.5659350    4.7409910    0.0000000  0.00    0.0004606    0.0010547   -0.0000000
 C    2.8382307    5.9452835    0.0000000  0.00   -0.0000753   -0.0020578   -0.0000000
 C    3.5187463    7.1970773    0.0000000  0.00    0.0014832    0.0011811   -0.0000000
 C    3.6474394    2.3475178    0.0000000  0.00   -0.0015946   -0.0006672   -0.0000000
 C    2.8682694    3.5015963    0.0000000  0.00    0.0007888   -0.0021058   -0.0000000
 C    2.9847465    1.1236688    0.0000000  0.00    0.0001352    0.0007275   -0.0000000
 C    1.4172938    5.8545145    0.0000000  0.00    0.0010608    0.0016089   -0.0000000
 C    0.7141477    7.0776488    0.0000000  0.00   -0.0026953    0.0006940   -0.0000000
 C    2.7637773    8.3648683    0.0000000  0.00    0.0009480    0.0007585   -0.0000000
 C    1.4037204    8.2987917    0.0000000  0.00    0.0002198    0.0017303   -0.0000000
 C    1.4230116    3.3385108    0.0000000  0.00    0.0000012   -0.0002007   -0.0000000
 C    0.7135563    4.5770007    0.0000000  0.00    0.0002354   -0.0000303   -0.0000000
 C    1.5821302    0.7997035    0.0000000  0.00    0.0002319   -0.0000459   -0.0000000
 C    0.7364926    1.9961337    0.0000000  0.00    0.0003192   -0.0008787   -0.0000000
 H    8.8694552    7.3655443    0.0000000  0.00    0.0005351   -0.0014065   -0.0000000
 H    7.5698912    9.4728625    0.0000000  0.00    0.0000978   -0.0023147   -0.0000000
 H    5.1367853    9.4197796    0.0000000  0.00    0.0011232   -0.0002476   -0.0000000
 H    8.9304542    4.9356368    0.0000000  0.00    0.0011580    0.0012211   -0.0000000
 H    9.0183261    2.5103575    0.0000000  0.00    0.0013723    0.0015956   -0.0000000
 H    3.2375349    9.3349650    0.0000000  0.00   -0.0008624   -0.0006279   -0.0000000
 H    0.8658056    9.2309948    0.0000000  0.00   -0.0013414    0.0010413   -0.0000000
 C   -7.1245019   -6.0967281    0.0000000  0.00   -0.0005051    0.0005971   -0.0000000
 C   -5.6892789   -6.0571683    0.0000000  0.00    0.0004769   -0.0011275   -0.0000000
 C   -7.7855929   -7.3466127    0.0000000  0.00    0.0003553    0.0018091   -0.0000000
 C   -4.9658217   -7.2669465    0.0000000  0.00   -0.0006047    0.0002731   -0.0000000
 C   -7.0617692   -8.5154204    0.0000000  0.00   -0.0011727    0.0016544   -0.0000000
 C   -5.6675414   -8.4789845    0.0000000  0.00   -0.0013407    0.0004818   -0.0000000
 C   -7.2031147   -3.6626949    0.0000000  0.00   -0.0004339    0.0002326   -0.0000000
 C   -5.7583571   -3.6293463    0.0000000  0.00    0.0002085   -0.0008328   -0.0000000
 C   -7.8463001   -4.9008942    0.0000000  0.00    0.0016004   -0.0006872   -0.0000000
 C   -5.0035228   -4.8086230    0.0000000  0.00    0.0014254    0.0004681   -0.0000000
 C   -7.2912242   -1.2272918    0.0000000  0.00    0.0001714   -0.0017769   -0.0000000
 C   -5.8530063   -1.2195079    0.0000000  0.00    0.0001987    0.0005015   -0.0000000
 C   -7.9346203   -2.4657427    0.0000000  0.00    0.0016129   -0.0017727   -0.0000000
 C   -5.0859782   -2.3953616    0.0000000  0.00    0.0002375    0.0009463   -0.0000000
 C   -3.5659350   -4.7409910    0.0000000  0.00   -0.0004606   -0.0010547   -0.0000000
 C   -2.8382307   -5.9452835    0.0000000  0.00    0.0000753    0.0020578   -0.0000000
 C   -3.5187463   -7.1970773    0.0000000  0.00   -0.0014832   -0.0011811   -0.0000000
 C   -3.6474394   -2.3475178    0.0000000  0.00    0.0015946    0.0006672   -0.0000000
 C   -2.8682694   -3.5015963    0.0000000  0.00   -0.0007888    0.0021058   -0.0000000
 C   -2.9847465   -1.1236688    0.0000000  0.00   -0.0001352   -0.0007275   -0.0000000
 C   -1.4172938   -5.8545145    0.0000000  0.00   -0.0010608   -0.0016089   -0.0000000
 C   -0.7141477   -7.0776488    0.0000000  0.00    0.0026953   -0.0006940   -0.0000000
 C   -2.7637773   -8.3648683    0.0000000  0.00   -0.0009480   -0.0007585   -0.0000000
 C   -1.4037204   -8.2987917    0.0000000  0.00   -0.0002198   -0.0017303   -0.0000000
 C   -1.4230116   -3.3385108    0.0000000  0.00   -0.0000012    0.0002007   -0.0000000
 C   -0.7135563   -4.5770007    0.0000000  0.00   -0.0002354    0.0000303   -0.0000000
 C   -1.5821302   -0.7997035    0.0000000  0.00   -0.0002319    0.0000459   -0.0000000
 C   -0.7364926   -1.9961337    0.0000000  0.00   -0.0003192    0.0008787   -0.0000000
 H   -8.8694552   -7.3655443    0.0000000  0.00   -0.0005351    0.0014065   -0.0000000
 H   -7.5698912   -9.4728625    0.0000000  0.00   -0.0000978    0.0023147   -0.0000000
 H   -5.1367853   -9.4197796    0.0000000  0.00   -0.0011232    0.0002476   -0.0000000
 H   -8.9304542   -4.9356368    0.0000000  0.00   -0.0011580   -0.0012211   -0.0000000
 H   -9.0183261   -2.5103575    0.0000000  0.00   -0.0013723   -0.0015956   -0.0000000
 H   -3.2375349   -9.3349650    0.0000000  0.00    0.0008624    0.0006279   -0.0000000
 H   -0.8658056   -9.2309948    0.0000000  0.00    0.0013414   -0.0010413   -0.0000000
