148
 Energy =   -4513.4026427600
 C    7.1186436   -6.0990363    0.0000000  0.00   -0.0000361   -0.0011982   -0.0000000
 C    5.6833060   -6.0606921    0.0000000  0.00   -0.0002630    0.0025089   -0.0000000
 C    7.7811527   -7.3468556    0.0000000  0.00    0.0009673    0.0020310   -0.0000000
 C    4.9608728   -7.2694805    0.0000000  0.00    0.0005319   -0.0008142   -0.0000000
 C    7.0578795   -8.5182874    0.0000000  0.00    0.0006333   -0.0001298   -0.0000000
 C    5.6659684   -8.4837627    0.0000000  0.00   -0.0003719    0.0002676   -0.0000000
 C    7.1955002   -3.6631458    0.0000000  0.00   -0.0007160    0.0001221   -0.0000000
 C    5.7517429   -3.6298569    0.0000000  0.00    0.0001642    0.0003665   -0.0000000
 C    7.8393852   -4.9019200    0.0000000  0.00    0.0007637    0.0001711   -0.0000000
 C    4.9964415   -4.8114049    0.0000000  0.00   -0.0007165   -0.0019995   -0.0000000
 C    7.2846120   -1.2271228    0.0000000  0.00   -0.0000074    0.0001365   -0.0000000
 C    5.8478395   -1.2193098    0.0000000  0.00    0.0003393   -0.0013563   -0.0000000
 C    7.9273319   -2.4674630    0.0000000  0.00    0.0009472   -0.0008779   -0.0000000
 C    5.0799446   -2.3981052    0.0000000  0.00   -0.0004966    0.0004805   -0.0000000
 C    7.9689046    0.0000000    0.0000000  0.00   -0.0006379   -0.0000000   -0.0000000
 C    5.1686916    0.0000000    0.0000000  0.00   -0.0005373   -0.0000000   -0.0000000
 C    3.5635154   -4.7452239    0.0000000  0.00    0.0022268    0.0023549   -0.0000000
 C    2.8361377   -5.9521801    0.0000000  0.00   -0.0014718   -0.0023817   -0.0000000
 C    3.5169941   -7.2017268    0.0000000  0.00    0.0006340    0.0009062   -0.0000000
 C    3.6421745   -2.3498954    0.0000000  0.00    0.0009589   -0.0005851   -0.0000000
 C    2.8638428   -3.5028692    0.0000000  0.00   -0.0022012   -0.0018224   -0.0000000
 C    3.7782545    0.0000000    0.0000000  0.00   -0.0006198   -0.0000000   -0.0000000
 C    2.9798021   -1.1232150    0.0000000  0.00    0.0006019    0.0004207   -0.0000000
 C    1.4151866   -5.8629360    0.0000000  0.00    0.0016635    0.0013592   -0.0000000
 C    0.7124044   -7.0839031    0.0000000  0.00   -0.0006047    0.0000121   -0.0000000
 C    2.7610062   -8.3744614    0.0000000  0.00    0.0003816   -0.0008393   -0.0000000
 C    1.4044903   -8.3097712    0.0000000  0.00   -0.0002777   -0.0006103   -0.0000000
 C    1.4210785   -3.3410376    0.0000000  0.00    0.0021233    0.0013155   -0.0000000
 C    0.7099804   -4.5830993    0.0000000  0.00   -0.0022184   -0.0014156   -0.0000000
 C    1.5822561   -0.7983507    0.0000000  0.00    0.0004680    0.0005523   -0.0000000
 C    0.7334407   -2.0036277    0.0000000  0.00   -0.0006817    0.0002428   -0.0000000
 H    8.8649770   -7.3644092    0.0000000  0.00    0.0010514    0.0004689   -0.0000000
 H    7.5678957   -9.4746441    0.0000000  0.00    0.0003370    0.0012997   -0.0000000
 H    5.1353894   -9.4245206    0.0000000  0.00    0.0014010   -0.0002233   -0.0000000
 H    8.9237249   -4.9359038    0.0000000  0.00   -0.0012031   -0.0011986   -0.0000000
 H    9.0111138   -2.5127701    0.0000000  0.00    0.0001269   -0.0009073   -0.0000000
 H    9.0534676    0.0000000    0.0000000  0.00    0.0007007   -0.0000000   -0.0000000
 H    3.2367402   -9.3434316    0.0000000  0.00    0.0002068   -0.0006672   -0.0000000
 H    0.8654570   -9.2412573    0.0000000  0.00    0.0000849   -0.0005880   -0.0000000
 C   -7.1186436    6.0990363    0.0000000  0.00    0.0000361    0.0011982   -0.0000000
 C   -5.6833060    6.0606921    0.0000000  0.00    0.0002630   -0.0025089   -0.0000000
 C   -7.7811527    7.3468556    0.0000000  0.00   -0.0009673   -0.0020310   -0.0000000
 C   -4.9608728    7.2694805    0.0000000  0.00   -0.0005319    0.0008142   -0.0000000
 C   -7.0578795    8.5182874    0.0000000  0.00   -0.0006333    0.0001298   -0.0000000
 C   -5.6659684    8.4837627    0.0000000  0.00    0.0003719   -0.0002676   -0.0000000
 C   -7.1955002    3.6631458    0.0000000  0.00    0.0007160   -0.0001221   -0.0000000
 C   -5.7517429    3.6298569    0.0000000  0.00   -0.0001642   -0.0003665   -0.0000000
 C   -7.8393852    4.9019200    0.0000000  0.00   -0.0007637   -0.0001711   -0.0000000
 C   -4.9964415    4.8114049    0.0000000  0.00    0.0007165    0.0019995   -0.0000000
 C   -7.2846120    1.2271228    0.0000000  0.00    0.0000074   -0.0001365   -0.0000000
 C   -5.8478395    1.2193098    0.0000000  0.00   -0.0003393    0.0013563   -0.0000000
 C   -7.9273319    2.4674630    0.0000000  0.00   -0.0009472    0.0008779   -0.0000000
 C   -5.0799446    2.3981052    0.0000000  0.00    0.0004966   -0.0004805   -0.0000000
 C   -7.9689046    0.0000000    0.0000000  0.00    0.0006379   -0.0000000   -0.0000000
 C   -5.1686916    0.0000000    0.0000000  0.00    0.0005373   -0.0000000   -0.0000000
 C   -3.5635154    4.7452239    0.0000000  0.00   -0.0022268   -0.0023549   -0.0000000
 C   -2.8361377    5.9521801    0.0000000  0.00    0.0014718    0.0023817   -0.0000000
 C   -3.5169941    7.2017268    0.0000000  0.00   -0.0006340   -0.0009062   -0.0000000
 C   -3.6421745    2.3498954    0.0000000  0.00   -0.0009589    0.0005851   -0.0000000
 C   -2.8638428    3.5028692    0.0000000  0.00    0.0022012    0.0018224   -0.0000000
 C   -3.7782545    0.0000000    0.0000000  0.00    0.0006198   -0.0000000   -0.0000000
 C   -2.9798021    1.1232150    0.0000000  0.00   -0.0006019   -0.0004207   -0.0000000
 C   -1.4151866    5.8629360    0.0000000  0.00   -0.0016635   -0.0013592   -0.0000000
 C   -0.7124044    7.0839031    0.0000000  0.00    0.0006047   -0.0000121   -0.0000000
 C   -2.7610062    8.3744614    0.0000000  0.00   -0.0003816    0.0008393   -0.0000000
 C   -1.4044903    8.3097712    0.0000000  0.00    0.0002777    0.0006103   -0.0000000
 C   -1.4210785    3.3410376    0.0000000  0.00   -0.0021233   -0.0013155   -0.0000000
 C   -0.7099804    4.5830993    0.0000000  0.00    0.0022184    0.0014156   -0.0000000
 C   -1.5822561    0.7983507    0.0000000  0.00   -0.0004680   -0.0005523   -0.0000000
 C   -0.7334407    2.0036277    0.0000000  0.00    0.0006817   -0.0002428   -0.0000000
 H   -8.8649770    7.3644092    0.0000000  0.00   -0.0010514   -0.0004689   -0.0000000
 H   -7.5678957    9.4746441    0.0000000  0.00   -0.0003370   -0.0012997   -0.0000000
 H   -5.1353894    9.4245206    0.0000000  0.00   -0.0014010    0.0002233   -0.0000000
 H   -8.9237249    4.9359038    0.0000000  0.00    0.0012031    0.0011986   -0.0000000
 H   -9.0111138    2.5127701    0.0000000  0.00   -0.0001269    0.0009073   -0.0000000
 H   -9.0534676    0.0000000    0.0000000  0.00   -0.0007007   -0.0000000   -0.0000000
 H   -3.2367402    9.3434316    0.0000000  0.00   -0.0002068    0.0006672   -0.0000000
 H   -0.8654570    9.2412573    0.0000000  0.00   -0.0000849    0.0005880   -0.0000000
 C    7.1186436    6.0990363    0.0000000  0.00   -0.0000361    0.0011982   -0.0000000
 C    5.6833060    6.0606921    0.0000000  0.00   -0.0002630   -0.0025089   -0.0000000
 C    7.7811527    7.3468556    0.0000000  0.00    0.0009673   -0.0020310   -0.0000000
 C    4.9608728    7.2694805    0.0000000  0.00    0.0005319    0.0008142   -0.0000000
 C    7.0578795    8.5182874    0.0000000  0.00    0.0006333    0.0001298   -0.0000000
 C    5.6659684    8.4837627    0.0000000  0.00   -0.0003719   -0.0002676   -0.0000000
 C    7.1955002    3.6631458    0.0000000  0.00   -0.0007160   -0.0001221   -0.0000000
 C    5.7517429    3.6298569    0.0000000  0.00    0.0001642   -0.0003665   -0.0000000
 C    7.8393852    4.9019200    0.0000000  0.00    0.0007637   -0.0001711   -0.0000000
 C    4.9964415    4.8114049    0.0000000  0.00   -0.0007165    0.0019995   -0.0000000
 C    7.2846120    1.2271228    0.0000000  0.00   -0.0000074   -0.0001365   -0.0000000
 C    5.8478395    1.2193098    0.0000000  0.00    0.0003393    0.0013563   -0.0000000
 C    7.9273319    2.4674630    0.0000000  0.00    0.0009472    0.0008779   -0.0000000
 C    5.0799446    2.3981052    0.0000000  0.00   -0.0004966   -0.0004805   -0.0000000
 C    3.5635154    4.7452239    0.0000000  0.00    0.0022268   -0.0023549   -0.0000000
 C    2.8361377    5.9521801    0.0000000  0.00   -0.0014718    0.0023817   -0.0000000
 C    3.5169941    7.2017268    0.0000000  0.00    0.0006340   -0.0009062   -0.0000000
 C    3.6421745    2.3498954    0.0000000  0.00    0.0009589    0.0005851   -0.0000000
 C    2.8638428    3.5028692    0.0000000  0.00   -0.0022012    0.0018224   -0.0000000
 C    2.9798021    1.1232150    0.0000000  0.00    0.0006019   -0.0004207   -0.0000000
 C    1.4151866    5.8629360    0.0000000  0.00    0.0016635   -0.0013592   -0.0000000
 C    0.7124044    7.0839031    0.0000000  0.00   -0.0006047   -0.0000121   -0.0000000
 C    2.7610062    8.3744614    0.0000000  0.00    0.0003816    0.0008393   -0.0000000
 C    1.4044903    8.3097712    0.0000000  0.00   -0.0002777    0.0006103   -0.0000000
 C    1.4210785    3.3410376    0.0000000  0.00    0.0021233   -0.0013155   -0.0000000
 C    0.7099804    4.5830993    0.0000000  0.00   -0.0022184    0.0014156   -0.0000000
 C    1.5822561    0.7983507    0.0000000  0.00    0.0004680   -0.0005523   -0.0000000
 C    0.7334407    2.0036277    0.0000000  0.00   -0.0006817   -0.0002428   -0.0000000
 H    8.8649770    7.3644092    0.0000000  0.00    0.0010514   -0.0004689   -0.0000000
 H    7.5678957    9.4746441    0.0000000  0.00    0.0003370   -0.0012997   -0.0000000
 H    5.1353894    9.4245206    0.0000000  0.00    0.0014010    0.0002233   -0.0000000
 H    8.9237249    4.9359038    0.0000000  0.00   -0.0012031    0.0011986   -0.0000000
 H    9.0111138    2.5127701    0.0000000  0.00    0.0001269    0.0009073   -0.0000000
 H    3.2367402    9.3434316    0.0000000  0.00    0.0002068    0.0006672   -0.0000000
 H    0.8654570    9.2412573    0.0000000  0.00    0.0000849    0.0005880   -0.0000000
 C   -7.1186436   -6.0990363    0.0000000  0.00    0.0000361   -0.0011982   -0.0000000
 C   -5.6833060   -6.0606921    0.0000000  0.00    0.0002630    0.0025089   -0.0000000
 C   -7.7811527   -7.3468556    0.0000000  0.00   -0.0009673    0.0020310   -0.0000000
 C   -4.9608728   -7.2694805    0.0000000  0.00   -0.0005319   -0.0008142   -0.0000000
 C   -7.0578795   -8.5182874    0.0000000  0.00   -0.0006333   -0.0001298   -0.0000000
 C   -5.6659684   -8.4837627    0.0000000  0.00    0.0003719    0.0002676   -0.0000000
 C   -7.1955002   -3.6631458    0.0000000  0.00    0.0007160    0.0001221   -0.0000000
 C   -5.7517429   -3.6298569    0.0000000  0.00   -0.0001642    0.0003665   -0.0000000
 C   -7.8393852   -4.9019200    0.0000000  0.00   -0.0007637    0.0001711   -0.0000000
 C   -4.9964415   -4.8114049    0.0000000  0.00    0.0007165   -0.0019995   -0.0000000
 C   -7.2846120   -1.2271228    0.0000000  0.00    0.0000074    0.0001365   -0.0000000
 C   -5.8478395   -1.2193098    0.0000000  0.00   -0.0003393   -0.0013563   -0.0000000
 C   -7.9273319   -2.4674630    0.0000000  0.00   -0.0009472   -0.0008779   -0.0000000
 C   -5.0799446   -2.3981052    0.0000000  0.00    0.0004966    0.0004805   -0.0000000
 C   -3.5635154   -4.7452239    0.0000000  0.00   -0.0022268    0.0023549   -0.0000000
 C   -2.8361377   -5.9521801    0.0000000  0.00    0.0014718   -0.0023817   -0.0000000
 C   -3.5169941   -7.2017268    0.0000000  0.00   -0.0006340    0.0009062   -0.0000000
 C   -3.6421745   -2.3498954    0.0000000  0.00   -0.0009589   -0.0005851   -0.0000000
 C   -2.8638428   -3.5028692    0.0000000  0.00    0.0022012   -0.0018224   -0.0000000
 C   -2.9798021   -1.1232150    0.0000000  0.00   -0.0006019    0.0004207   -0.0000000
 C   -1.4151866   -5.8629360    0.0000000  0.00   -0.0016635    0.0013592   -0.0000000
 C   -0.7124044   -7.0839031    0.0000000  0.00    0.0006047    0.0000121   -0.0000000
 C   -2.7610062   -8.3744614    0.0000000  0.00   -0.0003816   -0.0008393   -0.0000000
 C   -1.4044903   -8.3097712    0.0000000  0.00    0.0002777   -0.0006103   -0.0000000
 C   -1.4210785   -3.3410376    0.0000000  0.00   -0.0021233    0.0013155   -0.0000000
 C   -0.7099804   -4.5830993    0.0000000  0.00    0.0022184   -0.0014156   -0.0000000
 C   -1.5822561   -0.7983507    0.0000000  0.00   -0.0004680    0.0005523   -0.0000000
 C   -0.7334407   -2.0036277    0.0000000  0.00    0.0006817    0.0002428   -0.0000000
 H   -8.8649770   -7.3644092    0.0000000  0.00   -0.0010514    0.0004689   -0.0000000
 H   -7.5678957   -9.4746441    0.0000000  0.00   -0.0003370    0.0012997   -0.0000000
 H   -5.1353894   -9.4245206    0.0000000  0.00   -0.0014010   -0.0002233   -0.0000000
 H   -8.9237249   -4.9359038    0.0000000  0.00    0.0012031   -0.0011986   -0.0000000
 H   -9.0111138   -2.5127701    0.0000000  0.00   -0.0001269   -0.0009073   -0.0000000
 H   -3.2367402   -9.3434316    0.0000000  0.00   -0.0002068   -0.0006672   -0.0000000
 H   -0.8654570   -9.2412573    0.0000000  0.00   -0.0000849   -0.0005880   -0.0000000
