148
 Energy =   -4513.4444403340
 C    7.1189545   -6.0946788    0.0000000  0.00   -0.0002306    0.0018267   -0.0000000
 C    5.6860996   -6.0515405    0.0000000  0.00   -0.0004346   -0.0006468   -0.0000000
 C    7.7813584   -7.3418981    0.0000000  0.00    0.0021329   -0.0007405   -0.0000000
 C    4.9621287   -7.2627505    0.0000000  0.00   -0.0006526    0.0009002   -0.0000000
 C    7.0582944   -8.5100127    0.0000000  0.00    0.0012702   -0.0010429   -0.0000000
 C    5.6629363   -8.4717130    0.0000000  0.00    0.0008004    0.0012397   -0.0000000
 C    7.2010500   -3.6651793    0.0000000  0.00    0.0006465    0.0025384   -0.0000000
 C    5.7584516   -3.6274144    0.0000000  0.00    0.0028668   -0.0007794   -0.0000000
 C    7.8433973   -4.8972825    0.0000000  0.00   -0.0007808    0.0008841   -0.0000000
 C    5.0014620   -4.8032580    0.0000000  0.00    0.0012586    0.0014511   -0.0000000
 C    7.2999584   -1.2296121    0.0000000  0.00   -0.0005527    0.0020697   -0.0000000
 C    5.8605923   -1.2195321    0.0000000  0.00    0.0015408    0.0020180   -0.0000000
 C    7.9399945   -2.4645956    0.0000000  0.00    0.0012543    0.0012040   -0.0000000
 C    5.0883749   -2.3905410    0.0000000  0.00   -0.0010403   -0.0011894   -0.0000000
 C    7.9875750    0.0000000    0.0000000  0.00   -0.0011655   -0.0000000   -0.0000000
 C    5.1814959    0.0000000    0.0000000  0.00   -0.0004457   -0.0000000   -0.0000000
 C    3.5600437   -4.7308547    0.0000000  0.00   -0.0007271   -0.0016408   -0.0000000
 C    2.8343255   -5.9440778    0.0000000  0.00   -0.0015640    0.0013335   -0.0000000
 C    3.5139180   -7.1914787    0.0000000  0.00   -0.0015867    0.0005289   -0.0000000
 C    3.6470772   -2.3384479    0.0000000  0.00   -0.0001103    0.0001582   -0.0000000
 C    2.8662087   -3.4977897    0.0000000  0.00    0.0012123    0.0007258   -0.0000000
 C    3.7950051    0.0000000    0.0000000  0.00   -0.0012217   -0.0000000   -0.0000000
 C    2.9902323   -1.1159791    0.0000000  0.00    0.0003932    0.0009492   -0.0000000
 C    1.4154006   -5.8549035    0.0000000  0.00   -0.0001595    0.0017055   -0.0000000
 C    0.7134491   -7.0770330    0.0000000  0.00   -0.0034278    0.0012847   -0.0000000
 C    2.7615620   -8.3641794    0.0000000  0.00   -0.0022446    0.0006109   -0.0000000
 C    1.4035805   -8.3008137    0.0000000  0.00    0.0013073    0.0013538   -0.0000000
 C    1.4151733   -3.3288328    0.0000000  0.00   -0.0002764    0.0013440   -0.0000000
 C    0.7093982   -4.5743890    0.0000000  0.00    0.0000080    0.0018582   -0.0000000
 C    1.5811215   -0.7615255    0.0000000  0.00   -0.0009259    0.0001115   -0.0000000
 C    0.7240072   -2.0016098    0.0000000  0.00   -0.0003953    0.0013119   -0.0000000
 H    8.8652859   -7.3587805    0.0000000  0.00    0.0005148   -0.0014391   -0.0000000
 H    7.5653996   -9.4675537    0.0000000  0.00    0.0019184   -0.0030019   -0.0000000
 H    5.1324269   -9.4127787    0.0000000  0.00    0.0015898    0.0017543   -0.0000000
 H    8.9276761   -4.9336384    0.0000000  0.00   -0.0000748   -0.0003673   -0.0000000
 H    9.0237319   -2.5150839    0.0000000  0.00   -0.0020842    0.0018053   -0.0000000
 H    9.0721304    0.0000000    0.0000000  0.00   -0.0006537   -0.0000000   -0.0000000
 H    3.2380624   -9.3328464    0.0000000  0.00   -0.0004125    0.0014689   -0.0000000
 H    0.8657779   -9.2332858    0.0000000  0.00    0.0000638    0.0028132   -0.0000000
 C   -7.1189545    6.0946788    0.0000000  0.00    0.0002306   -0.0018267   -0.0000000
 C   -5.6860996    6.0515405    0.0000000  0.00    0.0004346    0.0006468   -0.0000000
 C   -7.7813584    7.3418981    0.0000000  0.00   -0.0021329    0.0007405   -0.0000000
 C   -4.9621287    7.2627505    0.0000000  0.00    0.0006526   -0.0009002   -0.0000000
 C   -7.0582944    8.5100127    0.0000000  0.00   -0.0012702    0.0010429   -0.0000000
 C   -5.6629363    8.4717130    0.0000000  0.00   -0.0008004   -0.0012397   -0.0000000
 C   -7.2010500    3.6651793    0.0000000  0.00   -0.0006465   -0.0025384   -0.0000000
 C   -5.7584516    3.6274144    0.0000000  0.00   -0.0028668    0.0007794   -0.0000000
 C   -7.8433973    4.8972825    0.0000000  0.00    0.0007808   -0.0008841   -0.0000000
 C   -5.0014620    4.8032580    0.0000000  0.00   -0.0012586   -0.0014511   -0.0000000
 C   -7.2999584    1.2296121    0.0000000  0.00    0.0005527   -0.0020697   -0.0000000
 C   -5.8605923    1.2195321    0.0000000  0.00   -0.0015408   -0.0020180   -0.0000000
 C   -7.9399945    2.4645956    0.0000000  0.00   -0.0012543   -0.0012040   -0.0000000
 C   -5.0883749    2.3905410    0.0000000  0.00    0.0010403    0.0011894   -0.0000000
 C   -7.9875750    0.0000000    0.0000000  0.00    0.0011655   -0.0000000   -0.0000000
 C   -5.1814959    0.0000000    0.0000000  0.00    0.0004457   -0.0000000   -0.0000000
 C   -3.5600437    4.7308547    0.0000000  0.00    0.0007271    0.0016408   -0.0000000
 C   -2.8343255    5.9440778    0.0000000  0.00    0.0015640   -0.0013335   -0.0000000
 C   -3.5139180    7.1914787    0.0000000  0.00    0.0015867   -0.0005289   -0.0000000
 C   -3.6470772    2.3384479    0.0000000  0.00    0.0001103   -0.0001582   -0.0000000
 C   -2.8662087    3.4977897    0.0000000  0.00   -0.0012123   -0.0007258   -0.0000000
 C   -3.7950051    0.0000000    0.0000000  0.00    0.0012217   -0.0000000   -0.0000000
 C   -2.9902323    1.1159791    0.0000000  0.00   -0.0003932   -0.0009492   -0.0000000
 C   -1.4154006    5.8549035    0.0000000  0.00    0.0001595   -0.0017055   -0.0000000
 C   -0.7134491    7.0770330    0.0000000  0.00    0.0034278   -0.0012847   -0.0000000
 C   -2.7615620    8.3641794    0.0000000  0.00    0.0022446   -0.0006109   -0.0000000
 C   -1.4035805    8.3008137    0.0000000  0.00   -0.0013073   -0.0013538   -0.0000000
 C   -1.4151733    3.3288328    0.0000000  0.00    0.0002764   -0.0013440   -0.0000000
 C   -0.7093982    4.5743890    0.0000000  0.00   -0.0000080   -0.0018582   -0.0000000
 C   -1.5811215    0.7615255    0.0000000  0.00    0.0009259   -0.0001115   -0.0000000
 C   -0.7240072    2.0016098    0.0000000  0.00    0.0003953   -0.0013119   -0.0000000
 H   -8.8652859    7.3587805    0.0000000  0.00   -0.0005148    0.0014391   -0.0000000
 H   -7.5653996    9.4675537    0.0000000  0.00   -0.0019184    0.0030019   -0.0000000
 H   -5.1324269    9.4127787    0.0000000  0.00   -0.0015898   -0.0017543   -0.0000000
 H   -8.9276761    4.9336384    0.0000000  0.00    0.0000748    0.0003673   -0.0000000
 H   -9.0237319    2.5150839    0.0000000  0.00    0.0020842   -0.0018053   -0.0000000
 H   -9.0721304    0.0000000    0.0000000  0.00    0.0006537   -0.0000000   -0.0000000
 H   -3.2380624    9.3328464    0.0000000  0.00    0.0004125   -0.0014689   -0.0000000
 H   -0.8657779    9.2332858    0.0000000  0.00   -0.0000638   -0.0028132   -0.0000000
 C    7.1189545    6.0946788    0.0000000  0.00   -0.0002306   -0.0018267   -0.0000000
 C    5.6860996    6.0515405    0.0000000  0.00   -0.0004346    0.0006468   -0.0000000
 C    7.7813584    7.3418981    0.0000000  0.00    0.0021329    0.0007405   -0.0000000
 C    4.9621287    7.2627505    0.0000000  0.00   -0.0006526   -0.0009002   -0.0000000
 C    7.0582944    8.5100127    0.0000000  0.00    0.0012702    0.0010429   -0.0000000
 C    5.6629363    8.4717130    0.0000000  0.00    0.0008004   -0.0012397   -0.0000000
 C    7.2010500    3.6651793    0.0000000  0.00    0.0006465   -0.0025384   -0.0000000
 C    5.7584516    3.6274144    0.0000000  0.00    0.0028668    0.0007794   -0.0000000
 C    7.8433973    4.8972825    0.0000000  0.00   -0.0007808   -0.0008841   -0.0000000
 C    5.0014620    4.8032580    0.0000000  0.00    0.0012586   -0.0014511   -0.0000000
 C    7.2999584    1.2296121    0.0000000  0.00   -0.0005527   -0.0020697   -0.0000000
 C    5.8605923    1.2195321    0.0000000  0.00    0.0015408   -0.0020180   -0.0000000
 C    7.9399945    2.4645956    0.0000000  0.00    0.0012543   -0.0012040   -0.0000000
 C    5.0883749    2.3905410    0.0000000  0.00   -0.0010403    0.0011894   -0.0000000
 C    3.5600437    4.7308547    0.0000000  0.00   -0.0007271    0.0016408   -0.0000000
 C    2.8343255    5.9440778    0.0000000  0.00   -0.0015640   -0.0013335   -0.0000000
 C    3.5139180    7.1914787    0.0000000  0.00   -0.0015867   -0.0005289   -0.0000000
 C    3.6470772    2.3384479    0.0000000  0.00   -0.0001103   -0.0001582   -0.0000000
 C    2.8662087    3.4977897    0.0000000  0.00    0.0012123   -0.0007258   -0.0000000
 C    2.9902323    1.1159791    0.0000000  0.00    0.0003932   -0.0009492   -0.0000000
 C    1.4154006    5.8549035    0.0000000  0.00   -0.0001595   -0.0017055   -0.0000000
 C    0.7134491    7.0770330    0.0000000  0.00   -0.0034278   -0.0012847   -0.0000000
 C    2.7615620    8.3641794    0.0000000  0.00   -0.0022446   -0.0006109   -0.0000000
 C    1.4035805    8.3008137    0.0000000  0.00    0.0013073   -0.0013538   -0.0000000
 C    1.4151733    3.3288328    0.0000000  0.00   -0.0002764   -0.0013440   -0.0000000
 C    0.7093982    4.5743890    0.0000000  0.00    0.0000080   -0.0018582   -0.0000000
 C    1.5811215    0.7615255    0.0000000  0.00   -0.0009259   -0.0001115   -0.0000000
 C    0.7240072    2.0016098    0.0000000  0.00   -0.0003953   -0.0013119   -0.0000000
 H    8.8652859    7.3587805    0.0000000  0.00    0.0005148    0.0014391   -0.0000000
 H    7.5653996    9.4675537    0.0000000  0.00    0.0019184    0.0030019   -0.0000000
 H    5.1324269    9.4127787    0.0000000  0.00    0.0015898   -0.0017543   -0.0000000
 H    8.9276761    4.9336384    0.0000000  0.00   -0.0000748    0.0003673   -0.0000000
 H    9.0237319    2.5150839    0.0000000  0.00   -0.0020842   -0.0018053   -0.0000000
 H    3.2380624    9.3328464    0.0000000  0.00   -0.0004125   -0.0014689   -0.0000000
 H    0.8657779    9.2332858    0.0000000  0.00    0.0000638   -0.0028132   -0.0000000
 C   -7.1189545   -6.0946788    0.0000000  0.00    0.0002306    0.0018267   -0.0000000
 C   -5.6860996   -6.0515405    0.0000000  0.00    0.0004346   -0.0006468   -0.0000000
 C   -7.7813584   -7.3418981    0.0000000  0.00   -0.0021329   -0.0007405   -0.0000000
 C   -4.9621287   -7.2627505    0.0000000  0.00    0.0006526    0.0009002   -0.0000000
 C   -7.0582944   -8.5100127    0.0000000  0.00   -0.0012702   -0.0010429   -0.0000000
 C   -5.6629363   -8.4717130    0.0000000  0.00   -0.0008004    0.0012397   -0.0000000
 C   -7.2010500   -3.6651793    0.0000000  0.00   -0.0006465    0.0025384   -0.0000000
 C   -5.7584516   -3.6274144    0.0000000  0.00   -0.0028668   -0.0007794   -0.0000000
 C   -7.8433973   -4.8972825    0.0000000  0.00    0.0007808    0.0008841   -0.0000000
 C   -5.0014620   -4.8032580    0.0000000  0.00   -0.0012586    0.0014511   -0.0000000
 C   -7.2999584   -1.2296121    0.0000000  0.00    0.0005527    0.0020697   -0.0000000
 C   -5.8605923   -1.2195321    0.0000000  0.00   -0.0015408    0.0020180   -0.0000000
 C   -7.9399945   -2.4645956    0.0000000  0.00   -0.0012543    0.0012040   -0.0000000
 C   -5.0883749   -2.3905410    0.0000000  0.00    0.0010403   -0.0011894   -0.0000000
 C   -3.5600437   -4.7308547    0.0000000  0.00    0.0007271   -0.0016408   -0.0000000
 C   -2.8343255   -5.9440778    0.0000000  0.00    0.0015640    0.0013335   -0.0000000
 C   -3.5139180   -7.1914787    0.0000000  0.00    0.0015867    0.0005289   -0.0000000
 C   -3.6470772   -2.3384479    0.0000000  0.00    0.0001103    0.0001582   -0.0000000
 C   -2.8662087   -3.4977897    0.0000000  0.00   -0.0012123    0.0007258   -0.0000000
 C   -2.9902323   -1.1159791    0.0000000  0.00   -0.0003932    0.0009492   -0.0000000
 C   -1.4154006   -5.8549035    0.0000000  0.00    0.0001595    0.0017055   -0.0000000
 C   -0.7134491   -7.0770330    0.0000000  0.00    0.0034278    0.0012847   -0.0000000
 C   -2.7615620   -8.3641794    0.0000000  0.00    0.0022446    0.0006109   -0.0000000
 C   -1.4035805   -8.3008137    0.0000000  0.00   -0.0013073    0.0013538   -0.0000000
 C   -1.4151733   -3.3288328    0.0000000  0.00    0.0002764    0.0013440   -0.0000000
 C   -0.7093982   -4.5743890    0.0000000  0.00   -0.0000080    0.0018582   -0.0000000
 C   -1.5811215   -0.7615255    0.0000000  0.00    0.0009259    0.0001115   -0.0000000
 C   -0.7240072   -2.0016098    0.0000000  0.00    0.0003953    0.0013119   -0.0000000
 H   -8.8652859   -7.3587805    0.0000000  0.00   -0.0005148   -0.0014391   -0.0000000
 H   -7.5653996   -9.4675537    0.0000000  0.00   -0.0019184   -0.0030019   -0.0000000
 H   -5.1324269   -9.4127787    0.0000000  0.00   -0.0015898    0.0017543   -0.0000000
 H   -8.9276761   -4.9336384    0.0000000  0.00    0.0000748   -0.0003673   -0.0000000
 H   -9.0237319   -2.5150839    0.0000000  0.00    0.0020842    0.0018053   -0.0000000
 H   -3.2380624   -9.3328464    0.0000000  0.00    0.0004125    0.0014689   -0.0000000
 H   -0.8657779   -9.2332858    0.0000000  0.00   -0.0000638    0.0028132   -0.0000000
