148
 Energy =   -4513.2373410910
 C    7.1140329   -6.0931526    0.0000000  0.00    0.0006427    0.0001232   -0.0000000
 C    5.6807696   -6.0534993    0.0000000  0.00   -0.0000661    0.0022387   -0.0000000
 C    7.7802155   -7.3394503    0.0000000  0.00   -0.0007367   -0.0017502   -0.0000000
 C    4.9607295   -7.2634731    0.0000000  0.00    0.0011747    0.0000255   -0.0000000
 C    7.0593998   -8.5076659    0.0000000  0.00    0.0004888    0.0012771   -0.0000000
 C    5.6669616   -8.4735114    0.0000000  0.00    0.0014486    0.0013782   -0.0000000
 C    7.1960527   -3.6615271    0.0000000  0.00   -0.0007687   -0.0017210   -0.0000000
 C    5.7526037   -3.6277983    0.0000000  0.00    0.0000705    0.0031991   -0.0000000
 C    7.8377621   -4.9002515    0.0000000  0.00    0.0002650    0.0013763   -0.0000000
 C    4.9966099   -4.8059303    0.0000000  0.00    0.0007274   -0.0006397   -0.0000000
 C    7.2923140   -1.2273532    0.0000000  0.00   -0.0023599    0.0007085   -0.0000000
 C    5.8529497   -1.2194036    0.0000000  0.00    0.0017688   -0.0018937   -0.0000000
 C    7.9321139   -2.4682873    0.0000000  0.00    0.0008003    0.0018328   -0.0000000
 C    5.0826181   -2.3943616    0.0000000  0.00   -0.0032341    0.0008254   -0.0000000
 C    7.9759515    0.0000000    0.0000000  0.00    0.0004917   -0.0000000   -0.0000000
 C    5.1729528    0.0000000    0.0000000  0.00   -0.0055837   -0.0000000   -0.0000000
 C    3.5609606   -4.7388374    0.0000000  0.00   -0.0002219   -0.0024780   -0.0000000
 C    2.8335685   -5.9458692    0.0000000  0.00    0.0034675    0.0012196   -0.0000000
 C    3.5152675   -7.1962287    0.0000000  0.00   -0.0006175   -0.0019525   -0.0000000
 C    3.6442558   -2.3456394    0.0000000  0.00    0.0048725   -0.0031110   -0.0000000
 C    2.8642431   -3.4990397    0.0000000  0.00   -0.0004526   -0.0016287   -0.0000000
 C    3.7823585    0.0000000    0.0000000  0.00    0.0052455   -0.0000000   -0.0000000
 C    2.9829990   -1.1219051    0.0000000  0.00   -0.0002061   -0.0000865   -0.0000000
 C    1.4147077   -5.8562656    0.0000000  0.00   -0.0017749   -0.0009966   -0.0000000
 C    0.7130071   -7.0787912    0.0000000  0.00    0.0021200    0.0021495   -0.0000000
 C    2.7632504   -8.3683055    0.0000000  0.00    0.0004867    0.0014742   -0.0000000
 C    1.4049489   -8.3011994    0.0000000  0.00   -0.0014486   -0.0008434   -0.0000000
 C    1.4203359   -3.3365286    0.0000000  0.00   -0.0003906   -0.0015070   -0.0000000
 C    0.7109732   -4.5770194    0.0000000  0.00    0.0030361   -0.0000253   -0.0000000
 C    1.5822882   -0.7948015    0.0000000  0.00   -0.0001386    0.0010329   -0.0000000
 C    0.7335413   -1.9978990    0.0000000  0.00    0.0024638   -0.0024484   -0.0000000
 H    8.8701370   -7.3513307    0.0000000  0.00    0.0019563   -0.0020649   -0.0000000
 H    7.5680480   -9.4717564    0.0000000  0.00    0.0009321    0.0001382   -0.0000000
 H    5.1417342   -9.4262144    0.0000000  0.00    0.0017127   -0.0004161   -0.0000000
 H    8.9246775   -4.9421541    0.0000000  0.00    0.0000751    0.0005763   -0.0000000
 H    9.0160966   -2.5204223    0.0000000  0.00   -0.0009584    0.0012297   -0.0000000
 H    9.0603751    0.0000000    0.0000000  0.00   -0.0011990   -0.0000000   -0.0000000
 H    3.2398169   -9.3405141    0.0000000  0.00   -0.0008267   -0.0010710   -0.0000000
 H    0.8676209   -9.2341744    0.0000000  0.00    0.0005417   -0.0007094   -0.0000000
 C   -7.1140329    6.0931526    0.0000000  0.00   -0.0006427   -0.0001232   -0.0000000
 C   -5.6807696    6.0534993    0.0000000  0.00    0.0000661   -0.0022387   -0.0000000
 C   -7.7802155    7.3394503    0.0000000  0.00    0.0007367    0.0017502   -0.0000000
 C   -4.9607295    7.2634731    0.0000000  0.00   -0.0011747   -0.0000255   -0.0000000
 C   -7.0593998    8.5076659    0.0000000  0.00   -0.0004888   -0.0012771   -0.0000000
 C   -5.6669616    8.4735114    0.0000000  0.00   -0.0014486   -0.0013782   -0.0000000
 C   -7.1960527    3.6615271    0.0000000  0.00    0.0007687    0.0017210   -0.0000000
 C   -5.7526037    3.6277983    0.0000000  0.00   -0.0000705   -0.0031991   -0.0000000
 C   -7.8377621    4.9002515    0.0000000  0.00   -0.0002650   -0.0013763   -0.0000000
 C   -4.9966099    4.8059303    0.0000000  0.00   -0.0007274    0.0006397   -0.0000000
 C   -7.2923140    1.2273532    0.0000000  0.00    0.0023599   -0.0007085   -0.0000000
 C   -5.8529497    1.2194036    0.0000000  0.00   -0.0017688    0.0018937   -0.0000000
 C   -7.9321139    2.4682873    0.0000000  0.00   -0.0008003   -0.0018328   -0.0000000
 C   -5.0826181    2.3943616    0.0000000  0.00    0.0032341   -0.0008254   -0.0000000
 C   -7.9759515    0.0000000    0.0000000  0.00   -0.0004917   -0.0000000   -0.0000000
 C   -5.1729528    0.0000000    0.0000000  0.00    0.0055837   -0.0000000   -0.0000000
 C   -3.5609606    4.7388374    0.0000000  0.00    0.0002219    0.0024780   -0.0000000
 C   -2.8335685    5.9458692    0.0000000  0.00   -0.0034675   -0.0012196   -0.0000000
 C   -3.5152675    7.1962287    0.0000000  0.00    0.0006175    0.0019525   -0.0000000
 C   -3.6442558    2.3456394    0.0000000  0.00   -0.0048725    0.0031110   -0.0000000
 C   -2.8642431    3.4990397    0.0000000  0.00    0.0004526    0.0016287   -0.0000000
 C   -3.7823585    0.0000000    0.0000000  0.00   -0.0052455   -0.0000000   -0.0000000
 C   -2.9829990    1.1219051    0.0000000  0.00    0.0002061    0.0000865   -0.0000000
 C   -1.4147077    5.8562656    0.0000000  0.00    0.0017749    0.0009966   -0.0000000
 C   -0.7130071    7.0787912    0.0000000  0.00   -0.0021200   -0.0021495   -0.0000000
 C   -2.7632504    8.3683055    0.0000000  0.00   -0.0004867   -0.0014742   -0.0000000
 C   -1.4049489    8.3011994    0.0000000  0.00    0.0014486    0.0008434   -0.0000000
 C   -1.4203359    3.3365286    0.0000000  0.00    0.0003906    0.0015070   -0.0000000
 C   -0.7109732    4.5770194    0.0000000  0.00   -0.0030361    0.0000253   -0.0000000
 C   -1.5822882    0.7948015    0.0000000  0.00    0.0001386   -0.0010329   -0.0000000
 C   -0.7335413    1.9978990    0.0000000  0.00   -0.0024638    0.0024484   -0.0000000
 H   -8.8701370    7.3513307    0.0000000  0.00   -0.0019563    0.0020649   -0.0000000
 H   -7.5680480    9.4717564    0.0000000  0.00   -0.0009321   -0.0001382   -0.0000000
 H   -5.1417342    9.4262144    0.0000000  0.00   -0.0017127    0.0004161   -0.0000000
 H   -8.9246775    4.9421541    0.0000000  0.00   -0.0000751   -0.0005763   -0.0000000
 H   -9.0160966    2.5204223    0.0000000  0.00    0.0009584   -0.0012297   -0.0000000
 H   -9.0603751    0.0000000    0.0000000  0.00    0.0011990   -0.0000000   -0.0000000
 H   -3.2398169    9.3405141    0.0000000  0.00    0.0008267    0.0010710   -0.0000000
 H   -0.8676209    9.2341744    0.0000000  0.00   -0.0005417    0.0007094   -0.0000000
 C    7.1140329    6.0931526    0.0000000  0.00    0.0006427   -0.0001232   -0.0000000
 C    5.6807696    6.0534993    0.0000000  0.00   -0.0000661   -0.0022387   -0.0000000
 C    7.7802155    7.3394503    0.0000000  0.00   -0.0007367    0.0017502   -0.0000000
 C    4.9607295    7.2634731    0.0000000  0.00    0.0011747   -0.0000255   -0.0000000
 C    7.0593998    8.5076659    0.0000000  0.00    0.0004888   -0.0012771   -0.0000000
 C    5.6669616    8.4735114    0.0000000  0.00    0.0014486   -0.0013782   -0.0000000
 C    7.1960527    3.6615271    0.0000000  0.00   -0.0007687    0.0017210   -0.0000000
 C    5.7526037    3.6277983    0.0000000  0.00    0.0000705   -0.0031991   -0.0000000
 C    7.8377621    4.9002515    0.0000000  0.00    0.0002650   -0.0013763   -0.0000000
 C    4.9966099    4.8059303    0.0000000  0.00    0.0007274    0.0006397   -0.0000000
 C    7.2923140    1.2273532    0.0000000  0.00   -0.0023599   -0.0007085   -0.0000000
 C    5.8529497    1.2194036    0.0000000  0.00    0.0017688    0.0018937   -0.0000000
 C    7.9321139    2.4682873    0.0000000  0.00    0.0008003   -0.0018328   -0.0000000
 C    5.0826181    2.3943616    0.0000000  0.00   -0.0032341   -0.0008254   -0.0000000
 C    3.5609606    4.7388374    0.0000000  0.00   -0.0002219    0.0024780   -0.0000000
 C    2.8335685    5.9458692    0.0000000  0.00    0.0034675   -0.0012196   -0.0000000
 C    3.5152675    7.1962287    0.0000000  0.00   -0.0006175    0.0019525   -0.0000000
 C    3.6442558    2.3456394    0.0000000  0.00    0.0048725    0.0031110   -0.0000000
 C    2.8642431    3.4990397    0.0000000  0.00   -0.0004526    0.0016287   -0.0000000
 C    2.9829990    1.1219051    0.0000000  0.00   -0.0002061    0.0000865   -0.0000000
 C    1.4147077    5.8562656    0.0000000  0.00   -0.0017749    0.0009966   -0.0000000
 C    0.7130071    7.0787912    0.0000000  0.00    0.0021200   -0.0021495   -0.0000000
 C    2.7632504    8.3683055    0.0000000  0.00    0.0004867   -0.0014742   -0.0000000
 C    1.4049489    8.3011994    0.0000000  0.00   -0.0014486    0.0008434   -0.0000000
 C    1.4203359    3.3365286    0.0000000  0.00   -0.0003906    0.0015070   -0.0000000
 C    0.7109732    4.5770194    0.0000000  0.00    0.0030361    0.0000253   -0.0000000
 C    1.5822882    0.7948015    0.0000000  0.00   -0.0001386   -0.0010329   -0.0000000
 C    0.7335413    1.9978990    0.0000000  0.00    0.0024638    0.0024484   -0.0000000
 H    8.8701370    7.3513307    0.0000000  0.00    0.0019563    0.0020649   -0.0000000
 H    7.5680480    9.4717564    0.0000000  0.00    0.0009321   -0.0001382   -0.0000000
 H    5.1417342    9.4262144    0.0000000  0.00    0.0017127    0.0004161   -0.0000000
 H    8.9246775    4.9421541    0.0000000  0.00    0.0000751   -0.0005763   -0.0000000
 H    9.0160966    2.5204223    0.0000000  0.00   -0.0009584   -0.0012297   -0.0000000
 H    3.2398169    9.3405141    0.0000000  0.00   -0.0008267    0.0010710   -0.0000000
 H    0.8676209    9.2341744    0.0000000  0.00    0.0005417    0.0007094   -0.0000000
 C   -7.1140329   -6.0931526    0.0000000  0.00   -0.0006427    0.0001232   -0.0000000
 C   -5.6807696   -6.0534993    0.0000000  0.00    0.0000661    0.0022387   -0.0000000
 C   -7.7802155   -7.3394503    0.0000000  0.00    0.0007367   -0.0017502   -0.0000000
 C   -4.9607295   -7.2634731    0.0000000  0.00   -0.0011747    0.0000255   -0.0000000
 C   -7.0593998   -8.5076659    0.0000000  0.00   -0.0004888    0.0012771   -0.0000000
 C   -5.6669616   -8.4735114    0.0000000  0.00   -0.0014486    0.0013782   -0.0000000
 C   -7.1960527   -3.6615271    0.0000000  0.00    0.0007687   -0.0017210   -0.0000000
 C   -5.7526037   -3.6277983    0.0000000  0.00   -0.0000705    0.0031991   -0.0000000
 C   -7.8377621   -4.9002515    0.0000000  0.00   -0.0002650    0.0013763   -0.0000000
 C   -4.9966099   -4.8059303    0.0000000  0.00   -0.0007274   -0.0006397   -0.0000000
 C   -7.2923140   -1.2273532    0.0000000  0.00    0.0023599    0.0007085   -0.0000000
 C   -5.8529497   -1.2194036    0.0000000  0.00   -0.0017688   -0.0018937   -0.0000000
 C   -7.9321139   -2.4682873    0.0000000  0.00   -0.0008003    0.0018328   -0.0000000
 C   -5.0826181   -2.3943616    0.0000000  0.00    0.0032341    0.0008254   -0.0000000
 C   -3.5609606   -4.7388374    0.0000000  0.00    0.0002219   -0.0024780   -0.0000000
 C   -2.8335685   -5.9458692    0.0000000  0.00   -0.0034675    0.0012196   -0.0000000
 C   -3.5152675   -7.1962287    0.0000000  0.00    0.0006175   -0.0019525   -0.0000000
 C   -3.6442558   -2.3456394    0.0000000  0.00   -0.0048725   -0.0031110   -0.0000000
 C   -2.8642431   -3.4990397    0.0000000  0.00    0.0004526   -0.0016287   -0.0000000
 C   -2.9829990   -1.1219051    0.0000000  0.00    0.0002061   -0.0000865   -0.0000000
 C   -1.4147077   -5.8562656    0.0000000  0.00    0.0017749   -0.0009966   -0.0000000
 C   -0.7130071   -7.0787912    0.0000000  0.00   -0.0021200    0.0021495   -0.0000000
 C   -2.7632504   -8.3683055    0.0000000  0.00   -0.0004867    0.0014742   -0.0000000
 C   -1.4049489   -8.3011994    0.0000000  0.00    0.0014486   -0.0008434   -0.0000000
 C   -1.4203359   -3.3365286    0.0000000  0.00    0.0003906   -0.0015070   -0.0000000
 C   -0.7109732   -4.5770194    0.0000000  0.00   -0.0030361   -0.0000253   -0.0000000
 C   -1.5822882   -0.7948015    0.0000000  0.00    0.0001386    0.0010329   -0.0000000
 C   -0.7335413   -1.9978990    0.0000000  0.00   -0.0024638   -0.0024484   -0.0000000
 H   -8.8701370   -7.3513307    0.0000000  0.00   -0.0019563   -0.0020649   -0.0000000
 H   -7.5680480   -9.4717564    0.0000000  0.00   -0.0009321    0.0001382   -0.0000000
 H   -5.1417342   -9.4262144    0.0000000  0.00   -0.0017127   -0.0004161   -0.0000000
 H   -8.9246775   -4.9421541    0.0000000  0.00   -0.0000751    0.0005763   -0.0000000
 H   -9.0160966   -2.5204223    0.0000000  0.00    0.0009584    0.0012297   -0.0000000
 H   -3.2398169   -9.3405141    0.0000000  0.00    0.0008267   -0.0010710   -0.0000000
 H   -0.8676209   -9.2341744    0.0000000  0.00   -0.0005417   -0.0007094   -0.0000000
