148
 Energy =   -4513.4069218320
 C    7.1181205   -6.1075941    0.0000000  0.00    0.0005771   -0.0009790   -0.0000000
 C    5.6837469   -6.0727817    0.0000000  0.00    0.0001720    0.0012195   -0.0000000
 C    7.7774687   -7.3553423    0.0000000  0.00    0.0002944   -0.0002669   -0.0000000
 C    4.9618083   -7.2802213    0.0000000  0.00   -0.0010391    0.0000486   -0.0000000
 C    7.0542162   -8.5292715    0.0000000  0.00   -0.0004141   -0.0003102   -0.0000000
 C    5.6644799   -8.4989316    0.0000000  0.00   -0.0011131    0.0008216   -0.0000000
 C    7.1980341   -3.6680297    0.0000000  0.00   -0.0007884   -0.0004327   -0.0000000
 C    5.7535647   -3.6374735    0.0000000  0.00    0.0014663    0.0015115   -0.0000000
 C    7.8385954   -4.9090977    0.0000000  0.00    0.0003635    0.0001937   -0.0000000
 C    4.9978269   -4.8214989    0.0000000  0.00   -0.0015993   -0.0010847   -0.0000000
 C    7.2786099   -1.2298454    0.0000000  0.00    0.0009605    0.0000655   -0.0000000
 C    5.8434970   -1.2227310    0.0000000  0.00    0.0008083   -0.0002586   -0.0000000
 C    7.9233192   -2.4701935    0.0000000  0.00   -0.0001297   -0.0009164   -0.0000000
 C    5.0796853   -2.4058664    0.0000000  0.00   -0.0016465    0.0003819   -0.0000000
 C    7.9553492    0.0000000    0.0000000  0.00    0.0014129   -0.0000000   -0.0000000
 C    5.1630193    0.0000000    0.0000000  0.00    0.0001505   -0.0000000   -0.0000000
 C    3.5685632   -4.7562071    0.0000000  0.00    0.0016401    0.0017589   -0.0000000
 C    2.8385435   -5.9585875    0.0000000  0.00   -0.0014943   -0.0010149   -0.0000000
 C    3.5196281   -7.2103677    0.0000000  0.00    0.0004095    0.0004136   -0.0000000
 C    3.6444415   -2.3593430    0.0000000  0.00    0.0007484    0.0020000   -0.0000000
 C    2.8663936   -3.5093446    0.0000000  0.00   -0.0028033   -0.0021590   -0.0000000
 C    3.7718834    0.0000000    0.0000000  0.00    0.0020438   -0.0000000   -0.0000000
 C    2.9790033   -1.1312580    0.0000000  0.00   -0.0000439   -0.0010014   -0.0000000
 C    1.4163371   -5.8693920    0.0000000  0.00    0.0021528   -0.0004385   -0.0000000
 C    0.7123857   -7.0897810    0.0000000  0.00   -0.0006648   -0.0004193   -0.0000000
 C    2.7610473   -8.3809936    0.0000000  0.00    0.0007980    0.0001492   -0.0000000
 C    1.4042622   -8.3151673    0.0000000  0.00   -0.0005264    0.0001748   -0.0000000
 C    1.4273546   -3.3540694    0.0000000  0.00    0.0013123   -0.0011656   -0.0000000
 C    0.7118590   -4.5911070    0.0000000  0.00   -0.0014836   -0.0006254   -0.0000000
 C    1.5859024   -0.8321225    0.0000000  0.00    0.0005290   -0.0001016   -0.0000000
 C    0.7432896   -2.0082354    0.0000000  0.00   -0.0005064   -0.0002165   -0.0000000
 H    8.8612721   -7.3740253    0.0000000  0.00    0.0017994   -0.0004682   -0.0000000
 H    7.5675334   -9.4840331    0.0000000  0.00   -0.0005958    0.0010213   -0.0000000
 H    5.1343445   -9.4396755    0.0000000  0.00   -0.0003770   -0.0004288   -0.0000000
 H    8.9226908   -4.9445731    0.0000000  0.00    0.0002779   -0.0000168   -0.0000000
 H    9.0071112   -2.5108430    0.0000000  0.00   -0.0008545   -0.0013298   -0.0000000
 H    9.0400857    0.0000000    0.0000000  0.00    0.0004548   -0.0000000   -0.0000000
 H    3.2361255   -9.3500605    0.0000000  0.00    0.0005972   -0.0009097   -0.0000000
 H    0.8648466   -9.2464731    0.0000000  0.00    0.0014615    0.0002663   -0.0000000
 C   -7.1181205    6.1075941    0.0000000  0.00   -0.0005771    0.0009790   -0.0000000
 C   -5.6837469    6.0727817    0.0000000  0.00   -0.0001720   -0.0012195   -0.0000000
 C   -7.7774687    7.3553423    0.0000000  0.00   -0.0002944    0.0002669   -0.0000000
 C   -4.9618083    7.2802213    0.0000000  0.00    0.0010391   -0.0000486   -0.0000000
 C   -7.0542162    8.5292715    0.0000000  0.00    0.0004141    0.0003102   -0.0000000
 C   -5.6644799    8.4989316    0.0000000  0.00    0.0011131   -0.0008216   -0.0000000
 C   -7.1980341    3.6680297    0.0000000  0.00    0.0007884    0.0004327   -0.0000000
 C   -5.7535647    3.6374735    0.0000000  0.00   -0.0014663   -0.0015115   -0.0000000
 C   -7.8385954    4.9090977    0.0000000  0.00   -0.0003635   -0.0001937   -0.0000000
 C   -4.9978269    4.8214989    0.0000000  0.00    0.0015993    0.0010847   -0.0000000
 C   -7.2786099    1.2298454    0.0000000  0.00   -0.0009605   -0.0000655   -0.0000000
 C   -5.8434970    1.2227310    0.0000000  0.00   -0.0008083    0.0002586   -0.0000000
 C   -7.9233192    2.4701935    0.0000000  0.00    0.0001297    0.0009164   -0.0000000
 C   -5.0796853    2.4058664    0.0000000  0.00    0.0016465   -0.0003819   -0.0000000
 C   -7.9553492    0.0000000    0.0000000  0.00   -0.0014129   -0.0000000   -0.0000000
 C   -5.1630193    0.0000000    0.0000000  0.00   -0.0001505   -0.0000000   -0.0000000
 C   -3.5685632    4.7562071    0.0000000  0.00   -0.0016401   -0.0017589   -0.0000000
 C   -2.8385435    5.9585875    0.0000000  0.00    0.0014943    0.0010149   -0.0000000
 C   -3.5196281    7.2103677    0.0000000  0.00   -0.0004095   -0.0004136   -0.0000000
 C   -3.6444415    2.3593430    0.0000000  0.00   -0.0007484   -0.0020000   -0.0000000
 C   -2.8663936    3.5093446    0.0000000  0.00    0.0028033    0.0021590   -0.0000000
 C   -3.7718834    0.0000000    0.0000000  0.00   -0.0020438   -0.0000000   -0.0000000
 C   -2.9790033    1.1312580    0.0000000  0.00    0.0000439    0.0010014   -0.0000000
 C   -1.4163371    5.8693920    0.0000000  0.00   -0.0021528    0.0004385   -0.0000000
 C   -0.7123857    7.0897810    0.0000000  0.00    0.0006648    0.0004193   -0.0000000
 C   -2.7610473    8.3809936    0.0000000  0.00   -0.0007980   -0.0001492   -0.0000000
 C   -1.4042622    8.3151673    0.0000000  0.00    0.0005264   -0.0001748   -0.0000000
 C   -1.4273546    3.3540694    0.0000000  0.00   -0.0013123    0.0011656   -0.0000000
 C   -0.7118590    4.5911070    0.0000000  0.00    0.0014836    0.0006254   -0.0000000
 C   -1.5859024    0.8321225    0.0000000  0.00   -0.0005290    0.0001016   -0.0000000
 C   -0.7432896    2.0082354    0.0000000  0.00    0.0005064    0.0002165   -0.0000000
 H   -8.8612721    7.3740253    0.0000000  0.00   -0.0017994    0.0004682   -0.0000000
 H   -7.5675334    9.4840331    0.0000000  0.00    0.0005958   -0.0010213   -0.0000000
 H   -5.1343445    9.4396755    0.0000000  0.00    0.0003770    0.0004288   -0.0000000
 H   -8.9226908    4.9445731    0.0000000  0.00   -0.0002779    0.0000168   -0.0000000
 H   -9.0071112    2.5108430    0.0000000  0.00    0.0008545    0.0013298   -0.0000000
 H   -9.0400857    0.0000000    0.0000000  0.00   -0.0004548   -0.0000000   -0.0000000
 H   -3.2361255    9.3500605    0.0000000  0.00   -0.0005972    0.0009097   -0.0000000
 H   -0.8648466    9.2464731    0.0000000  0.00   -0.0014615   -0.0002663   -0.0000000
 C    7.1181205    6.1075941    0.0000000  0.00    0.0005771    0.0009790   -0.0000000
 C    5.6837469    6.0727817    0.0000000  0.00    0.0001720   -0.0012195   -0.0000000
 C    7.7774687    7.3553423    0.0000000  0.00    0.0002944    0.0002669   -0.0000000
 C    4.9618083    7.2802213    0.0000000  0.00   -0.0010391   -0.0000486   -0.0000000
 C    7.0542162    8.5292715    0.0000000  0.00   -0.0004141    0.0003102   -0.0000000
 C    5.6644799    8.4989316    0.0000000  0.00   -0.0011131   -0.0008216   -0.0000000
 C    7.1980341    3.6680297    0.0000000  0.00   -0.0007884    0.0004327   -0.0000000
 C    5.7535647    3.6374735    0.0000000  0.00    0.0014663   -0.0015115   -0.0000000
 C    7.8385954    4.9090977    0.0000000  0.00    0.0003635   -0.0001937   -0.0000000
 C    4.9978269    4.8214989    0.0000000  0.00   -0.0015993    0.0010847   -0.0000000
 C    7.2786099    1.2298454    0.0000000  0.00    0.0009605   -0.0000655   -0.0000000
 C    5.8434970    1.2227310    0.0000000  0.00    0.0008083    0.0002586   -0.0000000
 C    7.9233192    2.4701935    0.0000000  0.00   -0.0001297    0.0009164   -0.0000000
 C    5.0796853    2.4058664    0.0000000  0.00   -0.0016465   -0.0003819   -0.0000000
 C    3.5685632    4.7562071    0.0000000  0.00    0.0016401   -0.0017589   -0.0000000
 C    2.8385435    5.9585875    0.0000000  0.00   -0.0014943    0.0010149   -0.0000000
 C    3.5196281    7.2103677    0.0000000  0.00    0.0004095   -0.0004136   -0.0000000
 C    3.6444415    2.3593430    0.0000000  0.00    0.0007484   -0.0020000   -0.0000000
 C    2.8663936    3.5093446    0.0000000  0.00   -0.0028033    0.0021590   -0.0000000
 C    2.9790033    1.1312580    0.0000000  0.00   -0.0000439    0.0010014   -0.0000000
 C    1.4163371    5.8693920    0.0000000  0.00    0.0021528    0.0004385   -0.0000000
 C    0.7123857    7.0897810    0.0000000  0.00   -0.0006648    0.0004193   -0.0000000
 C    2.7610473    8.3809936    0.0000000  0.00    0.0007980   -0.0001492   -0.0000000
 C    1.4042622    8.3151673    0.0000000  0.00   -0.0005264   -0.0001748   -0.0000000
 C    1.4273546    3.3540694    0.0000000  0.00    0.0013123    0.0011656   -0.0000000
 C    0.7118590    4.5911070    0.0000000  0.00   -0.0014836    0.0006254   -0.0000000
 C    1.5859024    0.8321225    0.0000000  0.00    0.0005290    0.0001016   -0.0000000
 C    0.7432896    2.0082354    0.0000000  0.00   -0.0005064    0.0002165   -0.0000000
 H    8.8612721    7.3740253    0.0000000  0.00    0.0017994    0.0004682   -0.0000000
 H    7.5675334    9.4840331    0.0000000  0.00   -0.0005958   -0.0010213   -0.0000000
 H    5.1343445    9.4396755    0.0000000  0.00   -0.0003770    0.0004288   -0.0000000
 H    8.9226908    4.9445731    0.0000000  0.00    0.0002779    0.0000168   -0.0000000
 H    9.0071112    2.5108430    0.0000000  0.00   -0.0008545    0.0013298   -0.0000000
 H    3.2361255    9.3500605    0.0000000  0.00    0.0005972    0.0009097   -0.0000000
 H    0.8648466    9.2464731    0.0000000  0.00    0.0014615   -0.0002663   -0.0000000
 C   -7.1181205   -6.1075941    0.0000000  0.00   -0.0005771   -0.0009790   -0.0000000
 C   -5.6837469   -6.0727817    0.0000000  0.00   -0.0001720    0.0012195   -0.0000000
 C   -7.7774687   -7.3553423    0.0000000  0.00   -0.0002944   -0.0002669   -0.0000000
 C   -4.9618083   -7.2802213    0.0000000  0.00    0.0010391    0.0000486   -0.0000000
 C   -7.0542162   -8.5292715    0.0000000  0.00    0.0004141   -0.0003102   -0.0000000
 C   -5.6644799   -8.4989316    0.0000000  0.00    0.0011131    0.0008216   -0.0000000
 C   -7.1980341   -3.6680297    0.0000000  0.00    0.0007884   -0.0004327   -0.0000000
 C   -5.7535647   -3.6374735    0.0000000  0.00   -0.0014663    0.0015115   -0.0000000
 C   -7.8385954   -4.9090977    0.0000000  0.00   -0.0003635    0.0001937   -0.0000000
 C   -4.9978269   -4.8214989    0.0000000  0.00    0.0015993   -0.0010847   -0.0000000
 C   -7.2786099   -1.2298454    0.0000000  0.00   -0.0009605    0.0000655   -0.0000000
 C   -5.8434970   -1.2227310    0.0000000  0.00   -0.0008083   -0.0002586   -0.0000000
 C   -7.9233192   -2.4701935    0.0000000  0.00    0.0001297   -0.0009164   -0.0000000
 C   -5.0796853   -2.4058664    0.0000000  0.00    0.0016465    0.0003819   -0.0000000
 C   -3.5685632   -4.7562071    0.0000000  0.00   -0.0016401    0.0017589   -0.0000000
 C   -2.8385435   -5.9585875    0.0000000  0.00    0.0014943   -0.0010149   -0.0000000
 C   -3.5196281   -7.2103677    0.0000000  0.00   -0.0004095    0.0004136   -0.0000000
 C   -3.6444415   -2.3593430    0.0000000  0.00   -0.0007484    0.0020000   -0.0000000
 C   -2.8663936   -3.5093446    0.0000000  0.00    0.0028033   -0.0021590   -0.0000000
 C   -2.9790033   -1.1312580    0.0000000  0.00    0.0000439   -0.0010014   -0.0000000
 C   -1.4163371   -5.8693920    0.0000000  0.00   -0.0021528   -0.0004385   -0.0000000
 C   -0.7123857   -7.0897810    0.0000000  0.00    0.0006648   -0.0004193   -0.0000000
 C   -2.7610473   -8.3809936    0.0000000  0.00   -0.0007980    0.0001492   -0.0000000
 C   -1.4042622   -8.3151673    0.0000000  0.00    0.0005264    0.0001748   -0.0000000
 C   -1.4273546   -3.3540694    0.0000000  0.00   -0.0013123   -0.0011656   -0.0000000
 C   -0.7118590   -4.5911070    0.0000000  0.00    0.0014836   -0.0006254   -0.0000000
 C   -1.5859024   -0.8321225    0.0000000  0.00   -0.0005290   -0.0001016   -0.0000000
 C   -0.7432896   -2.0082354    0.0000000  0.00    0.0005064   -0.0002165   -0.0000000
 H   -8.8612721   -7.3740253    0.0000000  0.00   -0.0017994   -0.0004682   -0.0000000
 H   -7.5675334   -9.4840331    0.0000000  0.00    0.0005958    0.0010213   -0.0000000
 H   -5.1343445   -9.4396755    0.0000000  0.00    0.0003770   -0.0004288   -0.0000000
 H   -8.9226908   -4.9445731    0.0000000  0.00   -0.0002779   -0.0000168   -0.0000000
 H   -9.0071112   -2.5108430    0.0000000  0.00    0.0008545   -0.0013298   -0.0000000
 H   -3.2361255   -9.3500605    0.0000000  0.00   -0.0005972   -0.0009097   -0.0000000
 H   -0.8648466   -9.2464731    0.0000000  0.00   -0.0014615    0.0002663   -0.0000000
