148
 Energy =   -4513.4335133070
 C    7.1168031   -6.1018765    0.0000000  0.00    0.0001627   -0.0013614   -0.0000000
 C    5.6836076   -6.0623374    0.0000000  0.00    0.0002512    0.0011054   -0.0000000
 C    7.7791804   -7.3462139    0.0000000  0.00    0.0010374    0.0009930   -0.0000000
 C    4.9605618   -7.2709815    0.0000000  0.00    0.0000925   -0.0011912   -0.0000000
 C    7.0558480   -8.5195341    0.0000000  0.00    0.0023897   -0.0032744   -0.0000000
 C    5.6655336   -8.4856360    0.0000000  0.00    0.0000509    0.0011332   -0.0000000
 C    7.1956508   -3.6660259    0.0000000  0.00   -0.0009223   -0.0006440   -0.0000000
 C    5.7524029   -3.6306596    0.0000000  0.00   -0.0009645   -0.0005893   -0.0000000
 C    7.8392873   -4.9008698    0.0000000  0.00    0.0020524   -0.0004430   -0.0000000
 C    4.9964516   -4.8122771    0.0000000  0.00   -0.0007845    0.0018806   -0.0000000
 C    7.2851036   -1.2281569    0.0000000  0.00   -0.0005734   -0.0000935   -0.0000000
 C    5.8491035   -1.2193377    0.0000000  0.00   -0.0000212    0.0015958   -0.0000000
 C    7.9295978   -2.4669859    0.0000000  0.00   -0.0014872    0.0006484   -0.0000000
 C    5.0806013   -2.3988000    0.0000000  0.00    0.0003632    0.0007701   -0.0000000
 C    7.9699953    0.0000000    0.0000000  0.00   -0.0018463   -0.0000000   -0.0000000
 C    5.1706942    0.0000000    0.0000000  0.00    0.0001227   -0.0000000   -0.0000000
 C    3.5642144   -4.7454640    0.0000000  0.00   -0.0004345   -0.0012138   -0.0000000
 C    2.8364208   -5.9528622    0.0000000  0.00   -0.0034557    0.0010035   -0.0000000
 C    3.5168600   -7.2022473    0.0000000  0.00    0.0005623   -0.0008398   -0.0000000
 C    3.6432110   -2.3502697    0.0000000  0.00    0.0004501    0.0005103   -0.0000000
 C    2.8645731   -3.5034814    0.0000000  0.00   -0.0005107    0.0011677   -0.0000000
 C    3.7790372    0.0000000    0.0000000  0.00   -0.0021176   -0.0000000   -0.0000000
 C    2.9810095   -1.1232789    0.0000000  0.00   -0.0009935    0.0005282   -0.0000000
 C    1.4154976   -5.8632090    0.0000000  0.00    0.0009297   -0.0008882   -0.0000000
 C    0.7125092   -7.0839159    0.0000000  0.00   -0.0019302   -0.0026306   -0.0000000
 C    2.7606728   -8.3750682    0.0000000  0.00    0.0004232    0.0011724   -0.0000000
 C    1.4042441   -8.3100115    0.0000000  0.00    0.0003202    0.0004392   -0.0000000
 C    1.4214309   -3.3413655    0.0000000  0.00   -0.0001981    0.0007257   -0.0000000
 C    0.7100087   -4.5832330    0.0000000  0.00   -0.0003913    0.0000799   -0.0000000
 C    1.5831229   -0.7980099    0.0000000  0.00   -0.0008411    0.0022766   -0.0000000
 C    0.7333563   -2.0042559    0.0000000  0.00    0.0001428    0.0015070   -0.0000000
 H    8.8630629   -7.3627167    0.0000000  0.00    0.0011028   -0.0022345   -0.0000000
 H    7.5669282   -9.4751526    0.0000000  0.00    0.0010509   -0.0014351   -0.0000000
 H    5.1347104   -9.4263132    0.0000000  0.00    0.0018887   -0.0003712   -0.0000000
 H    8.9235108   -4.9358671    0.0000000  0.00    0.0005234   -0.0000528   -0.0000000
 H    9.0134860   -2.5135016    0.0000000  0.00   -0.0024954    0.0026538   -0.0000000
 H    9.0547603    0.0000000    0.0000000  0.00   -0.0008278   -0.0000000   -0.0000000
 H    3.2363444   -9.3441457    0.0000000  0.00   -0.0004258    0.0008724   -0.0000000
 H    0.8653254   -9.2415704    0.0000000  0.00   -0.0008563    0.0001645   -0.0000000
 C   -7.1168031    6.1018765    0.0000000  0.00   -0.0001627    0.0013614   -0.0000000
 C   -5.6836076    6.0623374    0.0000000  0.00   -0.0002512   -0.0011054   -0.0000000
 C   -7.7791804    7.3462139    0.0000000  0.00   -0.0010374   -0.0009930   -0.0000000
 C   -4.9605618    7.2709815    0.0000000  0.00   -0.0000925    0.0011912   -0.0000000
 C   -7.0558480    8.5195341    0.0000000  0.00   -0.0023897    0.0032744   -0.0000000
 C   -5.6655336    8.4856360    0.0000000  0.00   -0.0000509   -0.0011332   -0.0000000
 C   -7.1956508    3.6660259    0.0000000  0.00    0.0009223    0.0006440   -0.0000000
 C   -5.7524029    3.6306596    0.0000000  0.00    0.0009645    0.0005893   -0.0000000
 C   -7.8392873    4.9008698    0.0000000  0.00   -0.0020524    0.0004430   -0.0000000
 C   -4.9964516    4.8122771    0.0000000  0.00    0.0007845   -0.0018806   -0.0000000
 C   -7.2851036    1.2281569    0.0000000  0.00    0.0005734    0.0000935   -0.0000000
 C   -5.8491035    1.2193377    0.0000000  0.00    0.0000212   -0.0015958   -0.0000000
 C   -7.9295978    2.4669859    0.0000000  0.00    0.0014872   -0.0006484   -0.0000000
 C   -5.0806013    2.3988000    0.0000000  0.00   -0.0003632   -0.0007701   -0.0000000
 C   -7.9699953    0.0000000    0.0000000  0.00    0.0018463   -0.0000000   -0.0000000
 C   -5.1706942    0.0000000    0.0000000  0.00   -0.0001227   -0.0000000   -0.0000000
 C   -3.5642144    4.7454640    0.0000000  0.00    0.0004345    0.0012138   -0.0000000
 C   -2.8364208    5.9528622    0.0000000  0.00    0.0034557   -0.0010035   -0.0000000
 C   -3.5168600    7.2022473    0.0000000  0.00   -0.0005623    0.0008398   -0.0000000
 C   -3.6432110    2.3502697    0.0000000  0.00   -0.0004501   -0.0005103   -0.0000000
 C   -2.8645731    3.5034814    0.0000000  0.00    0.0005107   -0.0011677   -0.0000000
 C   -3.7790372    0.0000000    0.0000000  0.00    0.0021176   -0.0000000   -0.0000000
 C   -2.9810095    1.1232789    0.0000000  0.00    0.0009935   -0.0005282   -0.0000000
 C   -1.4154976    5.8632090    0.0000000  0.00   -0.0009297    0.0008882   -0.0000000
 C   -0.7125092    7.0839159    0.0000000  0.00    0.0019302    0.0026306   -0.0000000
 C   -2.7606728    8.3750682    0.0000000  0.00   -0.0004232   -0.0011724   -0.0000000
 C   -1.4042441    8.3100115    0.0000000  0.00   -0.0003202   -0.0004392   -0.0000000
 C   -1.4214309    3.3413655    0.0000000  0.00    0.0001981   -0.0007257   -0.0000000
 C   -0.7100087    4.5832330    0.0000000  0.00    0.0003913   -0.0000799   -0.0000000
 C   -1.5831229    0.7980099    0.0000000  0.00    0.0008411   -0.0022766   -0.0000000
 C   -0.7333563    2.0042559    0.0000000  0.00   -0.0001428   -0.0015070   -0.0000000
 H   -8.8630629    7.3627167    0.0000000  0.00   -0.0011028    0.0022345   -0.0000000
 H   -7.5669282    9.4751526    0.0000000  0.00   -0.0010509    0.0014351   -0.0000000
 H   -5.1347104    9.4263132    0.0000000  0.00   -0.0018887    0.0003712   -0.0000000
 H   -8.9235108    4.9358671    0.0000000  0.00   -0.0005234    0.0000528   -0.0000000
 H   -9.0134860    2.5135016    0.0000000  0.00    0.0024954   -0.0026538   -0.0000000
 H   -9.0547603    0.0000000    0.0000000  0.00    0.0008278   -0.0000000   -0.0000000
 H   -3.2363444    9.3441457    0.0000000  0.00    0.0004258   -0.0008724   -0.0000000
 H   -0.8653254    9.2415704    0.0000000  0.00    0.0008563   -0.0001645   -0.0000000
 C    7.1168031    6.1018765    0.0000000  0.00    0.0001627    0.0013614   -0.0000000
 C    5.6836076    6.0623374    0.0000000  0.00    0.0002512   -0.0011054   -0.0000000
 C    7.7791804    7.3462139    0.0000000  0.00    0.0010374   -0.0009930   -0.0000000
 C    4.9605618    7.2709815    0.0000000  0.00    0.0000925    0.0011912   -0.0000000
 C    7.0558480    8.5195341    0.0000000  0.00    0.0023897    0.0032744   -0.0000000
 C    5.6655336    8.4856360    0.0000000  0.00    0.0000509   -0.0011332   -0.0000000
 C    7.1956508    3.6660259    0.0000000  0.00   -0.0009223    0.0006440   -0.0000000
 C    5.7524029    3.6306596    0.0000000  0.00   -0.0009645    0.0005893   -0.0000000
 C    7.8392873    4.9008698    0.0000000  0.00    0.0020524    0.0004430   -0.0000000
 C    4.9964516    4.8122771    0.0000000  0.00   -0.0007845   -0.0018806   -0.0000000
 C    7.2851036    1.2281569    0.0000000  0.00   -0.0005734    0.0000935   -0.0000000
 C    5.8491035    1.2193377    0.0000000  0.00   -0.0000212   -0.0015958   -0.0000000
 C    7.9295978    2.4669859    0.0000000  0.00   -0.0014872   -0.0006484   -0.0000000
 C    5.0806013    2.3988000    0.0000000  0.00    0.0003632   -0.0007701   -0.0000000
 C    3.5642144    4.7454640    0.0000000  0.00   -0.0004345    0.0012138   -0.0000000
 C    2.8364208    5.9528622    0.0000000  0.00   -0.0034557   -0.0010035   -0.0000000
 C    3.5168600    7.2022473    0.0000000  0.00    0.0005623    0.0008398   -0.0000000
 C    3.6432110    2.3502697    0.0000000  0.00    0.0004501   -0.0005103   -0.0000000
 C    2.8645731    3.5034814    0.0000000  0.00   -0.0005107   -0.0011677   -0.0000000
 C    2.9810095    1.1232789    0.0000000  0.00   -0.0009935   -0.0005282   -0.0000000
 C    1.4154976    5.8632090    0.0000000  0.00    0.0009297    0.0008882   -0.0000000
 C    0.7125092    7.0839159    0.0000000  0.00   -0.0019302    0.0026306   -0.0000000
 C    2.7606728    8.3750682    0.0000000  0.00    0.0004232   -0.0011724   -0.0000000
 C    1.4042441    8.3100115    0.0000000  0.00    0.0003202   -0.0004392   -0.0000000
 C    1.4214309    3.3413655    0.0000000  0.00   -0.0001981   -0.0007257   -0.0000000
 C    0.7100087    4.5832330    0.0000000  0.00   -0.0003913   -0.0000799   -0.0000000
 C    1.5831229    0.7980099    0.0000000  0.00   -0.0008411   -0.0022766   -0.0000000
 C    0.7333563    2.0042559    0.0000000  0.00    0.0001428   -0.0015070   -0.0000000
 H    8.8630629    7.3627167    0.0000000  0.00    0.0011028    0.0022345   -0.0000000
 H    7.5669282    9.4751526    0.0000000  0.00    0.0010509    0.0014351   -0.0000000
 H    5.1347104    9.4263132    0.0000000  0.00    0.0018887    0.0003712   -0.0000000
 H    8.9235108    4.9358671    0.0000000  0.00    0.0005234    0.0000528   -0.0000000
 H    9.0134860    2.5135016    0.0000000  0.00   -0.0024954   -0.0026538   -0.0000000
 H    3.2363444    9.3441457    0.0000000  0.00   -0.0004258   -0.0008724   -0.0000000
 H    0.8653254    9.2415704    0.0000000  0.00   -0.0008563   -0.0001645   -0.0000000
 C   -7.1168031   -6.1018765    0.0000000  0.00   -0.0001627   -0.0013614   -0.0000000
 C   -5.6836076   -6.0623374    0.0000000  0.00   -0.0002512    0.0011054   -0.0000000
 C   -7.7791804   -7.3462139    0.0000000  0.00   -0.0010374    0.0009930   -0.0000000
 C   -4.9605618   -7.2709815    0.0000000  0.00   -0.0000925   -0.0011912   -0.0000000
 C   -7.0558480   -8.5195341    0.0000000  0.00   -0.0023897   -0.0032744   -0.0000000
 C   -5.6655336   -8.4856360    0.0000000  0.00   -0.0000509    0.0011332   -0.0000000
 C   -7.1956508   -3.6660259    0.0000000  0.00    0.0009223   -0.0006440   -0.0000000
 C   -5.7524029   -3.6306596    0.0000000  0.00    0.0009645   -0.0005893   -0.0000000
 C   -7.8392873   -4.9008698    0.0000000  0.00   -0.0020524   -0.0004430   -0.0000000
 C   -4.9964516   -4.8122771    0.0000000  0.00    0.0007845    0.0018806   -0.0000000
 C   -7.2851036   -1.2281569    0.0000000  0.00    0.0005734   -0.0000935   -0.0000000
 C   -5.8491035   -1.2193377    0.0000000  0.00    0.0000212    0.0015958   -0.0000000
 C   -7.9295978   -2.4669859    0.0000000  0.00    0.0014872    0.0006484   -0.0000000
 C   -5.0806013   -2.3988000    0.0000000  0.00   -0.0003632    0.0007701   -0.0000000
 C   -3.5642144   -4.7454640    0.0000000  0.00    0.0004345   -0.0012138   -0.0000000
 C   -2.8364208   -5.9528622    0.0000000  0.00    0.0034557    0.0010035   -0.0000000
 C   -3.5168600   -7.2022473    0.0000000  0.00   -0.0005623   -0.0008398   -0.0000000
 C   -3.6432110   -2.3502697    0.0000000  0.00   -0.0004501    0.0005103   -0.0000000
 C   -2.8645731   -3.5034814    0.0000000  0.00    0.0005107    0.0011677   -0.0000000
 C   -2.9810095   -1.1232789    0.0000000  0.00    0.0009935    0.0005282   -0.0000000
 C   -1.4154976   -5.8632090    0.0000000  0.00   -0.0009297   -0.0008882   -0.0000000
 C   -0.7125092   -7.0839159    0.0000000  0.00    0.0019302   -0.0026306   -0.0000000
 C   -2.7606728   -8.3750682    0.0000000  0.00   -0.0004232    0.0011724   -0.0000000
 C   -1.4042441   -8.3100115    0.0000000  0.00   -0.0003202    0.0004392   -0.0000000
 C   -1.4214309   -3.3413655    0.0000000  0.00    0.0001981    0.0007257   -0.0000000
 C   -0.7100087   -4.5832330    0.0000000  0.00    0.0003913    0.0000799   -0.0000000
 C   -1.5831229   -0.7980099    0.0000000  0.00    0.0008411    0.0022766   -0.0000000
 C   -0.7333563   -2.0042559    0.0000000  0.00   -0.0001428    0.0015070   -0.0000000
 H   -8.8630629   -7.3627167    0.0000000  0.00   -0.0011028   -0.0022345   -0.0000000
 H   -7.5669282   -9.4751526    0.0000000  0.00   -0.0010509   -0.0014351   -0.0000000
 H   -5.1347104   -9.4263132    0.0000000  0.00   -0.0018887   -0.0003712   -0.0000000
 H   -8.9235108   -4.9358671    0.0000000  0.00   -0.0005234   -0.0000528   -0.0000000
 H   -9.0134860   -2.5135016    0.0000000  0.00    0.0024954    0.0026538   -0.0000000
 H   -3.2363444   -9.3441457    0.0000000  0.00    0.0004258    0.0008724   -0.0000000
 H   -0.8653254   -9.2415704    0.0000000  0.00    0.0008563    0.0001645   -0.0000000
