148
 Energy =   -4513.2625870020
 C    7.1145936   -6.0951440    0.0000000  0.00   -0.0024239   -0.0002473   -0.0000000
 C    5.6832347   -6.0550862    0.0000000  0.00    0.0007285   -0.0002893   -0.0000000
 C    7.7818201   -7.3382578    0.0000000  0.00    0.0005020    0.0011388   -0.0000000
 C    4.9629768   -7.2661428    0.0000000  0.00   -0.0007908   -0.0001088   -0.0000000
 C    7.0617457   -8.5077888    0.0000000  0.00   -0.0020489   -0.0003478   -0.0000000
 C    5.6699489   -8.4751559    0.0000000  0.00   -0.0002187    0.0006764   -0.0000000
 C    7.1959351   -3.6650079    0.0000000  0.00   -0.0008500   -0.0041350   -0.0000000
 C    5.7538639   -3.6292285    0.0000000  0.00    0.0012052   -0.0004879   -0.0000000
 C    7.8383156   -4.8978087    0.0000000  0.00    0.0016974    0.0058915   -0.0000000
 C    4.9979420   -4.8073960    0.0000000  0.00    0.0013879    0.0000446   -0.0000000
 C    7.2925503   -1.2291585    0.0000000  0.00    0.0000159   -0.0011050   -0.0000000
 C    5.8530288   -1.2198820    0.0000000  0.00   -0.0025684   -0.0008465   -0.0000000
 C    7.9337005   -2.4657874    0.0000000  0.00    0.0005513    0.0052744   -0.0000000
 C    5.0831449   -2.3946811    0.0000000  0.00   -0.0003966    0.0014218   -0.0000000
 C    7.9776314    0.0000000    0.0000000  0.00    0.0005847   -0.0000000   -0.0000000
 C    5.1740017    0.0000000    0.0000000  0.00   -0.0002884   -0.0000000   -0.0000000
 C    3.5616569   -4.7399712    0.0000000  0.00    0.0003477    0.0002489   -0.0000000
 C    2.8347404   -5.9473557    0.0000000  0.00   -0.0012133    0.0009135   -0.0000000
 C    3.5169125   -7.1978078    0.0000000  0.00   -0.0017982    0.0000337   -0.0000000
 C    3.6450737   -2.3462397    0.0000000  0.00    0.0024242   -0.0015578   -0.0000000
 C    2.8651250   -3.5004774    0.0000000  0.00   -0.0004140   -0.0002251   -0.0000000
 C    3.7829916    0.0000000    0.0000000  0.00    0.0003835   -0.0000000   -0.0000000
 C    2.9841263   -1.1222034    0.0000000  0.00   -0.0026623    0.0023072   -0.0000000
 C    1.4154103   -5.8578486    0.0000000  0.00    0.0008123    0.0005389   -0.0000000
 C    0.7133159   -7.0803485    0.0000000  0.00    0.0000964    0.0000030   -0.0000000
 C    2.7643747   -8.3692696    0.0000000  0.00   -0.0000254    0.0002241   -0.0000000
 C    1.4056375   -8.3024654    0.0000000  0.00   -0.0018151    0.0000450   -0.0000000
 C    1.4208077   -3.3379580    0.0000000  0.00    0.0000230    0.0001655   -0.0000000
 C    0.7114863   -4.5783864    0.0000000  0.00   -0.0002312    0.0002655   -0.0000000
 C    1.5821732   -0.7945205    0.0000000  0.00   -0.0005792    0.0005421   -0.0000000
 C    0.7336112   -1.9989662    0.0000000  0.00   -0.0005058    0.0011067   -0.0000000
 H    8.8718680   -7.3501593    0.0000000  0.00   -0.0012599    0.0004117   -0.0000000
 H    7.5725552   -9.4706110    0.0000000  0.00   -0.0013553   -0.0029857   -0.0000000
 H    5.1464185   -9.4287914    0.0000000  0.00   -0.0016776    0.0010829   -0.0000000
 H    8.9251440   -4.9389369    0.0000000  0.00    0.0015080    0.0007482   -0.0000000
 H    9.0177390   -2.5167958    0.0000000  0.00   -0.0008619   -0.0007263   -0.0000000
 H    9.0620822    0.0000000    0.0000000  0.00   -0.0014991   -0.0000000   -0.0000000
 H    3.2409946   -9.3416070    0.0000000  0.00   -0.0012030   -0.0002935   -0.0000000
 H    0.8691553   -9.2361061    0.0000000  0.00   -0.0012365    0.0017792   -0.0000000
 C   -7.1145936    6.0951440    0.0000000  0.00    0.0024239    0.0002473   -0.0000000
 C   -5.6832347    6.0550862    0.0000000  0.00   -0.0007285    0.0002893   -0.0000000
 C   -7.7818201    7.3382578    0.0000000  0.00   -0.0005020   -0.0011388   -0.0000000
 C   -4.9629768    7.2661428    0.0000000  0.00    0.0007908    0.0001088   -0.0000000
 C   -7.0617457    8.5077888    0.0000000  0.00    0.0020489    0.0003478   -0.0000000
 C   -5.6699489    8.4751559    0.0000000  0.00    0.0002187   -0.0006764   -0.0000000
 C   -7.1959351    3.6650079    0.0000000  0.00    0.0008500    0.0041350   -0.0000000
 C   -5.7538639    3.6292285    0.0000000  0.00   -0.0012052    0.0004879   -0.0000000
 C   -7.8383156    4.8978087    0.0000000  0.00   -0.0016974   -0.0058915   -0.0000000
 C   -4.9979420    4.8073960    0.0000000  0.00   -0.0013879   -0.0000446   -0.0000000
 C   -7.2925503    1.2291585    0.0000000  0.00   -0.0000159    0.0011050   -0.0000000
 C   -5.8530288    1.2198820    0.0000000  0.00    0.0025684    0.0008465   -0.0000000
 C   -7.9337005    2.4657874    0.0000000  0.00   -0.0005513   -0.0052744   -0.0000000
 C   -5.0831449    2.3946811    0.0000000  0.00    0.0003966   -0.0014218   -0.0000000
 C   -7.9776314    0.0000000    0.0000000  0.00   -0.0005847   -0.0000000   -0.0000000
 C   -5.1740017    0.0000000    0.0000000  0.00    0.0002884   -0.0000000   -0.0000000
 C   -3.5616569    4.7399712    0.0000000  0.00   -0.0003477   -0.0002489   -0.0000000
 C   -2.8347404    5.9473557    0.0000000  0.00    0.0012133   -0.0009135   -0.0000000
 C   -3.5169125    7.1978078    0.0000000  0.00    0.0017982   -0.0000337   -0.0000000
 C   -3.6450737    2.3462397    0.0000000  0.00   -0.0024242    0.0015578   -0.0000000
 C   -2.8651250    3.5004774    0.0000000  0.00    0.0004140    0.0002251   -0.0000000
 C   -3.7829916    0.0000000    0.0000000  0.00   -0.0003835   -0.0000000   -0.0000000
 C   -2.9841263    1.1222034    0.0000000  0.00    0.0026623   -0.0023072   -0.0000000
 C   -1.4154103    5.8578486    0.0000000  0.00   -0.0008123   -0.0005389   -0.0000000
 C   -0.7133159    7.0803485    0.0000000  0.00   -0.0000964   -0.0000030   -0.0000000
 C   -2.7643747    8.3692696    0.0000000  0.00    0.0000254   -0.0002241   -0.0000000
 C   -1.4056375    8.3024654    0.0000000  0.00    0.0018151   -0.0000450   -0.0000000
 C   -1.4208077    3.3379580    0.0000000  0.00   -0.0000230   -0.0001655   -0.0000000
 C   -0.7114863    4.5783864    0.0000000  0.00    0.0002312   -0.0002655   -0.0000000
 C   -1.5821732    0.7945205    0.0000000  0.00    0.0005792   -0.0005421   -0.0000000
 C   -0.7336112    1.9989662    0.0000000  0.00    0.0005058   -0.0011067   -0.0000000
 H   -8.8718680    7.3501593    0.0000000  0.00    0.0012599   -0.0004117   -0.0000000
 H   -7.5725552    9.4706110    0.0000000  0.00    0.0013553    0.0029857   -0.0000000
 H   -5.1464185    9.4287914    0.0000000  0.00    0.0016776   -0.0010829   -0.0000000
 H   -8.9251440    4.9389369    0.0000000  0.00   -0.0015080   -0.0007482   -0.0000000
 H   -9.0177390    2.5167958    0.0000000  0.00    0.0008619    0.0007263   -0.0000000
 H   -9.0620822    0.0000000    0.0000000  0.00    0.0014991   -0.0000000   -0.0000000
 H   -3.2409946    9.3416070    0.0000000  0.00    0.0012030    0.0002935   -0.0000000
 H   -0.8691553    9.2361061    0.0000000  0.00    0.0012365   -0.0017792   -0.0000000
 C    7.1145936    6.0951440    0.0000000  0.00   -0.0024239    0.0002473   -0.0000000
 C    5.6832347    6.0550862    0.0000000  0.00    0.0007285    0.0002893   -0.0000000
 C    7.7818201    7.3382578    0.0000000  0.00    0.0005020   -0.0011388   -0.0000000
 C    4.9629768    7.2661428    0.0000000  0.00   -0.0007908    0.0001088   -0.0000000
 C    7.0617457    8.5077888    0.0000000  0.00   -0.0020489    0.0003478   -0.0000000
 C    5.6699489    8.4751559    0.0000000  0.00   -0.0002187   -0.0006764   -0.0000000
 C    7.1959351    3.6650079    0.0000000  0.00   -0.0008500    0.0041350   -0.0000000
 C    5.7538639    3.6292285    0.0000000  0.00    0.0012052    0.0004879   -0.0000000
 C    7.8383156    4.8978087    0.0000000  0.00    0.0016974   -0.0058915   -0.0000000
 C    4.9979420    4.8073960    0.0000000  0.00    0.0013879   -0.0000446   -0.0000000
 C    7.2925503    1.2291585    0.0000000  0.00    0.0000159    0.0011050   -0.0000000
 C    5.8530288    1.2198820    0.0000000  0.00   -0.0025684    0.0008465   -0.0000000
 C    7.9337005    2.4657874    0.0000000  0.00    0.0005513   -0.0052744   -0.0000000
 C    5.0831449    2.3946811    0.0000000  0.00   -0.0003966   -0.0014218   -0.0000000
 C    3.5616569    4.7399712    0.0000000  0.00    0.0003477   -0.0002489   -0.0000000
 C    2.8347404    5.9473557    0.0000000  0.00   -0.0012133   -0.0009135   -0.0000000
 C    3.5169125    7.1978078    0.0000000  0.00   -0.0017982   -0.0000337   -0.0000000
 C    3.6450737    2.3462397    0.0000000  0.00    0.0024242    0.0015578   -0.0000000
 C    2.8651250    3.5004774    0.0000000  0.00   -0.0004140    0.0002251   -0.0000000
 C    2.9841263    1.1222034    0.0000000  0.00   -0.0026623   -0.0023072   -0.0000000
 C    1.4154103    5.8578486    0.0000000  0.00    0.0008123   -0.0005389   -0.0000000
 C    0.7133159    7.0803485    0.0000000  0.00    0.0000964   -0.0000030   -0.0000000
 C    2.7643747    8.3692696    0.0000000  0.00   -0.0000254   -0.0002241   -0.0000000
 C    1.4056375    8.3024654    0.0000000  0.00   -0.0018151   -0.0000450   -0.0000000
 C    1.4208077    3.3379580    0.0000000  0.00    0.0000230   -0.0001655   -0.0000000
 C    0.7114863    4.5783864    0.0000000  0.00   -0.0002312   -0.0002655   -0.0000000
 C    1.5821732    0.7945205    0.0000000  0.00   -0.0005792   -0.0005421   -0.0000000
 C    0.7336112    1.9989662    0.0000000  0.00   -0.0005058   -0.0011067   -0.0000000
 H    8.8718680    7.3501593    0.0000000  0.00   -0.0012599   -0.0004117   -0.0000000
 H    7.5725552    9.4706110    0.0000000  0.00   -0.0013553    0.0029857   -0.0000000
 H    5.1464185    9.4287914    0.0000000  0.00   -0.0016776   -0.0010829   -0.0000000
 H    8.9251440    4.9389369    0.0000000  0.00    0.0015080   -0.0007482   -0.0000000
 H    9.0177390    2.5167958    0.0000000  0.00   -0.0008619    0.0007263   -0.0000000
 H    3.2409946    9.3416070    0.0000000  0.00   -0.0012030    0.0002935   -0.0000000
 H    0.8691553    9.2361061    0.0000000  0.00   -0.0012365   -0.0017792   -0.0000000
 C   -7.1145936   -6.0951440    0.0000000  0.00    0.0024239   -0.0002473   -0.0000000
 C   -5.6832347   -6.0550862    0.0000000  0.00   -0.0007285   -0.0002893   -0.0000000
 C   -7.7818201   -7.3382578    0.0000000  0.00   -0.0005020    0.0011388   -0.0000000
 C   -4.9629768   -7.2661428    0.0000000  0.00    0.0007908   -0.0001088   -0.0000000
 C   -7.0617457   -8.5077888    0.0000000  0.00    0.0020489   -0.0003478   -0.0000000
 C   -5.6699489   -8.4751559    0.0000000  0.00    0.0002187    0.0006764   -0.0000000
 C   -7.1959351   -3.6650079    0.0000000  0.00    0.0008500   -0.0041350   -0.0000000
 C   -5.7538639   -3.6292285    0.0000000  0.00   -0.0012052   -0.0004879   -0.0000000
 C   -7.8383156   -4.8978087    0.0000000  0.00   -0.0016974    0.0058915   -0.0000000
 C   -4.9979420   -4.8073960    0.0000000  0.00   -0.0013879    0.0000446   -0.0000000
 C   -7.2925503   -1.2291585    0.0000000  0.00   -0.0000159   -0.0011050   -0.0000000
 C   -5.8530288   -1.2198820    0.0000000  0.00    0.0025684   -0.0008465   -0.0000000
 C   -7.9337005   -2.4657874    0.0000000  0.00   -0.0005513    0.0052744   -0.0000000
 C   -5.0831449   -2.3946811    0.0000000  0.00    0.0003966    0.0014218   -0.0000000
 C   -3.5616569   -4.7399712    0.0000000  0.00   -0.0003477    0.0002489   -0.0000000
 C   -2.8347404   -5.9473557    0.0000000  0.00    0.0012133    0.0009135   -0.0000000
 C   -3.5169125   -7.1978078    0.0000000  0.00    0.0017982    0.0000337   -0.0000000
 C   -3.6450737   -2.3462397    0.0000000  0.00   -0.0024242   -0.0015578   -0.0000000
 C   -2.8651250   -3.5004774    0.0000000  0.00    0.0004140   -0.0002251   -0.0000000
 C   -2.9841263   -1.1222034    0.0000000  0.00    0.0026623    0.0023072   -0.0000000
 C   -1.4154103   -5.8578486    0.0000000  0.00   -0.0008123    0.0005389   -0.0000000
 C   -0.7133159   -7.0803485    0.0000000  0.00   -0.0000964    0.0000030   -0.0000000
 C   -2.7643747   -8.3692696    0.0000000  0.00    0.0000254    0.0002241   -0.0000000
 C   -1.4056375   -8.3024654    0.0000000  0.00    0.0018151    0.0000450   -0.0000000
 C   -1.4208077   -3.3379580    0.0000000  0.00   -0.0000230    0.0001655   -0.0000000
 C   -0.7114863   -4.5783864    0.0000000  0.00    0.0002312    0.0002655   -0.0000000
 C   -1.5821732   -0.7945205    0.0000000  0.00    0.0005792    0.0005421   -0.0000000
 C   -0.7336112   -1.9989662    0.0000000  0.00    0.0005058    0.0011067   -0.0000000
 H   -8.8718680   -7.3501593    0.0000000  0.00    0.0012599    0.0004117   -0.0000000
 H   -7.5725552   -9.4706110    0.0000000  0.00    0.0013553   -0.0029857   -0.0000000
 H   -5.1464185   -9.4287914    0.0000000  0.00    0.0016776    0.0010829   -0.0000000
 H   -8.9251440   -4.9389369    0.0000000  0.00   -0.0015080    0.0007482   -0.0000000
 H   -9.0177390   -2.5167958    0.0000000  0.00    0.0008619   -0.0007263   -0.0000000
 H   -3.2409946   -9.3416070    0.0000000  0.00    0.0012030   -0.0002935   -0.0000000
 H   -0.8691553   -9.2361061    0.0000000  0.00    0.0012365    0.0017792   -0.0000000
