148
 Energy =   -4513.4025654850
 C    7.1188919   -6.0990935    0.0000000  0.00    0.0000507    0.0006104   -0.0000000
 C    5.6834806   -6.0607950    0.0000000  0.00    0.0007147    0.0005628   -0.0000000
 C    7.7814706   -7.3467652    0.0000000  0.00    0.0006277    0.0003112   -0.0000000
 C    4.9611599   -7.2697897    0.0000000  0.00   -0.0004417    0.0002185   -0.0000000
 C    7.0582492   -8.5182604    0.0000000  0.00    0.0005940    0.0007806   -0.0000000
 C    5.6663362   -8.4840059    0.0000000  0.00    0.0001862    0.0006140   -0.0000000
 C    7.1953814   -3.6632718    0.0000000  0.00    0.0000932   -0.0000077   -0.0000000
 C    5.7516035   -3.6299395    0.0000000  0.00    0.0016781    0.0002247   -0.0000000
 C    7.8395386   -4.9018344    0.0000000  0.00   -0.0011108    0.0001086   -0.0000000
 C    4.9964300   -4.8116453    0.0000000  0.00   -0.0009638   -0.0004117   -0.0000000
 C    7.2845313   -1.2269922    0.0000000  0.00   -0.0004118    0.0001352   -0.0000000
 C    5.8477452   -1.2193734    0.0000000  0.00    0.0019452   -0.0004221   -0.0000000
 C    7.9270107   -2.4674538    0.0000000  0.00    0.0003552   -0.0004648   -0.0000000
 C    5.0799648   -2.3982200    0.0000000  0.00   -0.0009092   -0.0007074   -0.0000000
 C    7.9691449    0.0000000    0.0000000  0.00    0.0001379   -0.0000000   -0.0000000
 C    5.1684754    0.0000000    0.0000000  0.00   -0.0005032   -0.0000000   -0.0000000
 C    3.5635886   -4.7454349    0.0000000  0.00    0.0007901    0.0014666   -0.0000000
 C    2.8362076   -5.9522958    0.0000000  0.00   -0.0002399   -0.0017572   -0.0000000
 C    3.5171960   -7.2018728    0.0000000  0.00   -0.0002505    0.0003356   -0.0000000
 C    3.6421375   -2.3501251    0.0000000  0.00    0.0005205    0.0004417   -0.0000000
 C    2.8638403   -3.5029437    0.0000000  0.00   -0.0001055   -0.0017966   -0.0000000
 C    3.7781450    0.0000000    0.0000000  0.00    0.0003059   -0.0000000   -0.0000000
 C    2.9797282   -1.1232908    0.0000000  0.00    0.0005413   -0.0000077   -0.0000000
 C    1.4152318   -5.8630483    0.0000000  0.00    0.0004329    0.0006406   -0.0000000
 C    0.7124183   -7.0840592    0.0000000  0.00    0.0002684   -0.0006554   -0.0000000
 C    2.7611200   -8.3745294    0.0000000  0.00    0.0003689   -0.0004138   -0.0000000
 C    1.4045467   -8.3099587    0.0000000  0.00   -0.0004720    0.0011209   -0.0000000
 C    1.4211157   -3.3411071    0.0000000  0.00    0.0000655   -0.0008284   -0.0000000
 C    0.7099702   -4.5832383    0.0000000  0.00   -0.0007402   -0.0001168   -0.0000000
 C    1.5823343   -0.7988688    0.0000000  0.00    0.0003899   -0.0003333   -0.0000000
 C    0.7336271   -2.0036616    0.0000000  0.00   -0.0004392   -0.0001232   -0.0000000
 H    8.8652846   -7.3642785    0.0000000  0.00    0.0011481    0.0005607   -0.0000000
 H    7.5684211   -9.4745011    0.0000000  0.00    0.0005172    0.0006817   -0.0000000
 H    5.1359195   -9.4248681    0.0000000  0.00    0.0013088   -0.0000504   -0.0000000
 H    8.9238359   -4.9356102    0.0000000  0.00   -0.0005573   -0.0012818   -0.0000000
 H    9.0108351   -2.5127056    0.0000000  0.00   -0.0002642   -0.0011368   -0.0000000
 H    9.0537410    0.0000000    0.0000000  0.00   -0.0004500   -0.0000000   -0.0000000
 H    3.2369306   -9.3434605    0.0000000  0.00    0.0001876   -0.0009123   -0.0000000
 H    0.8655371   -9.2414867    0.0000000  0.00    0.0002922   -0.0002779   -0.0000000
 C   -7.1188919    6.0990935    0.0000000  0.00   -0.0000507   -0.0006104   -0.0000000
 C   -5.6834806    6.0607950    0.0000000  0.00   -0.0007147   -0.0005628   -0.0000000
 C   -7.7814706    7.3467652    0.0000000  0.00   -0.0006277   -0.0003112   -0.0000000
 C   -4.9611599    7.2697897    0.0000000  0.00    0.0004417   -0.0002185   -0.0000000
 C   -7.0582492    8.5182604    0.0000000  0.00   -0.0005940   -0.0007806   -0.0000000
 C   -5.6663362    8.4840059    0.0000000  0.00   -0.0001862   -0.0006140   -0.0000000
 C   -7.1953814    3.6632718    0.0000000  0.00   -0.0000932    0.0000077   -0.0000000
 C   -5.7516035    3.6299395    0.0000000  0.00   -0.0016781   -0.0002247   -0.0000000
 C   -7.8395386    4.9018344    0.0000000  0.00    0.0011108   -0.0001086   -0.0000000
 C   -4.9964300    4.8116453    0.0000000  0.00    0.0009638    0.0004117   -0.0000000
 C   -7.2845313    1.2269922    0.0000000  0.00    0.0004118   -0.0001352   -0.0000000
 C   -5.8477452    1.2193734    0.0000000  0.00   -0.0019452    0.0004221   -0.0000000
 C   -7.9270107    2.4674538    0.0000000  0.00   -0.0003552    0.0004648   -0.0000000
 C   -5.0799648    2.3982200    0.0000000  0.00    0.0009092    0.0007074   -0.0000000
 C   -7.9691449    0.0000000    0.0000000  0.00   -0.0001379   -0.0000000   -0.0000000
 C   -5.1684754    0.0000000    0.0000000  0.00    0.0005032   -0.0000000   -0.0000000
 C   -3.5635886    4.7454349    0.0000000  0.00   -0.0007901   -0.0014666   -0.0000000
 C   -2.8362076    5.9522958    0.0000000  0.00    0.0002399    0.0017572   -0.0000000
 C   -3.5171960    7.2018728    0.0000000  0.00    0.0002505   -0.0003356   -0.0000000
 C   -3.6421375    2.3501251    0.0000000  0.00   -0.0005205   -0.0004417   -0.0000000
 C   -2.8638403    3.5029437    0.0000000  0.00    0.0001055    0.0017966   -0.0000000
 C   -3.7781450    0.0000000    0.0000000  0.00   -0.0003059   -0.0000000   -0.0000000
 C   -2.9797282    1.1232908    0.0000000  0.00   -0.0005413    0.0000077   -0.0000000
 C   -1.4152318    5.8630483    0.0000000  0.00   -0.0004329   -0.0006406   -0.0000000
 C   -0.7124183    7.0840592    0.0000000  0.00   -0.0002684    0.0006554   -0.0000000
 C   -2.7611200    8.3745294    0.0000000  0.00   -0.0003689    0.0004138   -0.0000000
 C   -1.4045467    8.3099587    0.0000000  0.00    0.0004720   -0.0011209   -0.0000000
 C   -1.4211157    3.3411071    0.0000000  0.00   -0.0000655    0.0008284   -0.0000000
 C   -0.7099702    4.5832383    0.0000000  0.00    0.0007402    0.0001168   -0.0000000
 C   -1.5823343    0.7988688    0.0000000  0.00   -0.0003899    0.0003333   -0.0000000
 C   -0.7336271    2.0036616    0.0000000  0.00    0.0004392    0.0001232   -0.0000000
 H   -8.8652846    7.3642785    0.0000000  0.00   -0.0011481   -0.0005607   -0.0000000
 H   -7.5684211    9.4745011    0.0000000  0.00   -0.0005172   -0.0006817   -0.0000000
 H   -5.1359195    9.4248681    0.0000000  0.00   -0.0013088    0.0000504   -0.0000000
 H   -8.9238359    4.9356102    0.0000000  0.00    0.0005573    0.0012818   -0.0000000
 H   -9.0108351    2.5127056    0.0000000  0.00    0.0002642    0.0011368   -0.0000000
 H   -9.0537410    0.0000000    0.0000000  0.00    0.0004500   -0.0000000   -0.0000000
 H   -3.2369306    9.3434605    0.0000000  0.00   -0.0001876    0.0009123   -0.0000000
 H   -0.8655371    9.2414867    0.0000000  0.00   -0.0002922    0.0002779   -0.0000000
 C    7.1188919    6.0990935    0.0000000  0.00    0.0000507   -0.0006104   -0.0000000
 C    5.6834806    6.0607950    0.0000000  0.00    0.0007147   -0.0005628   -0.0000000
 C    7.7814706    7.3467652    0.0000000  0.00    0.0006277   -0.0003112   -0.0000000
 C    4.9611599    7.2697897    0.0000000  0.00   -0.0004417   -0.0002185   -0.0000000
 C    7.0582492    8.5182604    0.0000000  0.00    0.0005940   -0.0007806   -0.0000000
 C    5.6663362    8.4840059    0.0000000  0.00    0.0001862   -0.0006140   -0.0000000
 C    7.1953814    3.6632718    0.0000000  0.00    0.0000932    0.0000077   -0.0000000
 C    5.7516035    3.6299395    0.0000000  0.00    0.0016781   -0.0002247   -0.0000000
 C    7.8395386    4.9018344    0.0000000  0.00   -0.0011108   -0.0001086   -0.0000000
 C    4.9964300    4.8116453    0.0000000  0.00   -0.0009638    0.0004117   -0.0000000
 C    7.2845313    1.2269922    0.0000000  0.00   -0.0004118   -0.0001352   -0.0000000
 C    5.8477452    1.2193734    0.0000000  0.00    0.0019452    0.0004221   -0.0000000
 C    7.9270107    2.4674538    0.0000000  0.00    0.0003552    0.0004648   -0.0000000
 C    5.0799648    2.3982200    0.0000000  0.00   -0.0009092    0.0007074   -0.0000000
 C    3.5635886    4.7454349    0.0000000  0.00    0.0007901   -0.0014666   -0.0000000
 C    2.8362076    5.9522958    0.0000000  0.00   -0.0002399    0.0017572   -0.0000000
 C    3.5171960    7.2018728    0.0000000  0.00   -0.0002505   -0.0003356   -0.0000000
 C    3.6421375    2.3501251    0.0000000  0.00    0.0005205   -0.0004417   -0.0000000
 C    2.8638403    3.5029437    0.0000000  0.00   -0.0001055    0.0017966   -0.0000000
 C    2.9797282    1.1232908    0.0000000  0.00    0.0005413    0.0000077   -0.0000000
 C    1.4152318    5.8630483    0.0000000  0.00    0.0004329   -0.0006406   -0.0000000
 C    0.7124183    7.0840592    0.0000000  0.00    0.0002684    0.0006554   -0.0000000
 C    2.7611200    8.3745294    0.0000000  0.00    0.0003689    0.0004138   -0.0000000
 C    1.4045467    8.3099587    0.0000000  0.00   -0.0004720   -0.0011209   -0.0000000
 C    1.4211157    3.3411071    0.0000000  0.00    0.0000655    0.0008284   -0.0000000
 C    0.7099702    4.5832383    0.0000000  0.00   -0.0007402    0.0001168   -0.0000000
 C    1.5823343    0.7988688    0.0000000  0.00    0.0003899    0.0003333   -0.0000000
 C    0.7336271    2.0036616    0.0000000  0.00   -0.0004392    0.0001232   -0.0000000
 H    8.8652846    7.3642785    0.0000000  0.00    0.0011481   -0.0005607   -0.0000000
 H    7.5684211    9.4745011    0.0000000  0.00    0.0005172   -0.0006817   -0.0000000
 H    5.1359195    9.4248681    0.0000000  0.00    0.0013088    0.0000504   -0.0000000
 H    8.9238359    4.9356102    0.0000000  0.00   -0.0005573    0.0012818   -0.0000000
 H    9.0108351    2.5127056    0.0000000  0.00   -0.0002642    0.0011368   -0.0000000
 H    3.2369306    9.3434605    0.0000000  0.00    0.0001876    0.0009123   -0.0000000
 H    0.8655371    9.2414867    0.0000000  0.00    0.0002922    0.0002779   -0.0000000
 C   -7.1188919   -6.0990935    0.0000000  0.00   -0.0000507    0.0006104   -0.0000000
 C   -5.6834806   -6.0607950    0.0000000  0.00   -0.0007147    0.0005628   -0.0000000
 C   -7.7814706   -7.3467652    0.0000000  0.00   -0.0006277    0.0003112   -0.0000000
 C   -4.9611599   -7.2697897    0.0000000  0.00    0.0004417    0.0002185   -0.0000000
 C   -7.0582492   -8.5182604    0.0000000  0.00   -0.0005940    0.0007806   -0.0000000
 C   -5.6663362   -8.4840059    0.0000000  0.00   -0.0001862    0.0006140   -0.0000000
 C   -7.1953814   -3.6632718    0.0000000  0.00   -0.0000932   -0.0000077   -0.0000000
 C   -5.7516035   -3.6299395    0.0000000  0.00   -0.0016781    0.0002247   -0.0000000
 C   -7.8395386   -4.9018344    0.0000000  0.00    0.0011108    0.0001086   -0.0000000
 C   -4.9964300   -4.8116453    0.0000000  0.00    0.0009638   -0.0004117   -0.0000000
 C   -7.2845313   -1.2269922    0.0000000  0.00    0.0004118    0.0001352   -0.0000000
 C   -5.8477452   -1.2193734    0.0000000  0.00   -0.0019452   -0.0004221   -0.0000000
 C   -7.9270107   -2.4674538    0.0000000  0.00   -0.0003552   -0.0004648   -0.0000000
 C   -5.0799648   -2.3982200    0.0000000  0.00    0.0009092   -0.0007074   -0.0000000
 C   -3.5635886   -4.7454349    0.0000000  0.00   -0.0007901    0.0014666   -0.0000000
 C   -2.8362076   -5.9522958    0.0000000  0.00    0.0002399   -0.0017572   -0.0000000
 C   -3.5171960   -7.2018728    0.0000000  0.00    0.0002505    0.0003356   -0.0000000
 C   -3.6421375   -2.3501251    0.0000000  0.00   -0.0005205    0.0004417   -0.0000000
 C   -2.8638403   -3.5029437    0.0000000  0.00    0.0001055   -0.0017966   -0.0000000
 C   -2.9797282   -1.1232908    0.0000000  0.00   -0.0005413   -0.0000077   -0.0000000
 C   -1.4152318   -5.8630483    0.0000000  0.00   -0.0004329    0.0006406   -0.0000000
 C   -0.7124183   -7.0840592    0.0000000  0.00   -0.0002684   -0.0006554   -0.0000000
 C   -2.7611200   -8.3745294    0.0000000  0.00   -0.0003689   -0.0004138   -0.0000000
 C   -1.4045467   -8.3099587    0.0000000  0.00    0.0004720    0.0011209   -0.0000000
 C   -1.4211157   -3.3411071    0.0000000  0.00   -0.0000655   -0.0008284   -0.0000000
 C   -0.7099702   -4.5832383    0.0000000  0.00    0.0007402   -0.0001168   -0.0000000
 C   -1.5823343   -0.7988688    0.0000000  0.00   -0.0003899   -0.0003333   -0.0000000
 C   -0.7336271   -2.0036616    0.0000000  0.00    0.0004392   -0.0001232   -0.0000000
 H   -8.8652846   -7.3642785    0.0000000  0.00   -0.0011481    0.0005607   -0.0000000
 H   -7.5684211   -9.4745011    0.0000000  0.00   -0.0005172    0.0006817   -0.0000000
 H   -5.1359195   -9.4248681    0.0000000  0.00   -0.0013088   -0.0000504   -0.0000000
 H   -8.9238359   -4.9356102    0.0000000  0.00    0.0005573   -0.0012818   -0.0000000
 H   -9.0108351   -2.5127056    0.0000000  0.00    0.0002642   -0.0011368   -0.0000000
 H   -3.2369306   -9.3434605    0.0000000  0.00   -0.0001876   -0.0009123   -0.0000000
 H   -0.8655371   -9.2414867    0.0000000  0.00   -0.0002922   -0.0002779   -0.0000000
