148
 Energy =   -4513.2389995090
 C    7.1114862   -6.1005240    0.0000000  0.00   -0.0003660   -0.0000679   -0.0000000
 C    5.6792013   -6.0594474    0.0000000  0.00    0.0005577   -0.0004739   -0.0000000
 C    7.7716553   -7.3487040    0.0000000  0.00    0.0000823   -0.0003957   -0.0000000
 C    4.9540519   -7.2704607    0.0000000  0.00    0.0016627    0.0008615   -0.0000000
 C    7.0471542   -8.5180542    0.0000000  0.00    0.0007175   -0.0017449   -0.0000000
 C    5.6551721   -8.4840204    0.0000000  0.00   -0.0007428   -0.0003191   -0.0000000
 C    7.1944381   -3.6691686    0.0000000  0.00   -0.0009724   -0.0013157   -0.0000000
 C    5.7533890   -3.6322854    0.0000000  0.00   -0.0005583   -0.0004561   -0.0000000
 C    7.8353975   -4.9030560    0.0000000  0.00   -0.0012245    0.0002100   -0.0000000
 C    4.9958312   -4.8126443    0.0000000  0.00   -0.0002862    0.0006046   -0.0000000
 C    7.2869215   -1.2333707    0.0000000  0.00   -0.0003535   -0.0017284   -0.0000000
 C    5.8473355   -1.2227701    0.0000000  0.00   -0.0015466   -0.0018136   -0.0000000
 C    7.9299081   -2.4643318    0.0000000  0.00   -0.0004663    0.0005959   -0.0000000
 C    5.0810962   -2.3953279    0.0000000  0.00    0.0000153   -0.0012796   -0.0000000
 C    7.9712446    0.0000000    0.0000000  0.00    0.0012538   -0.0000000   -0.0000000
 C    5.1690673    0.0000000    0.0000000  0.00    0.0009798   -0.0000000   -0.0000000
 C    3.5596579   -4.7459341    0.0000000  0.00   -0.0008125    0.0020047   -0.0000000
 C    2.8327851   -5.9484579    0.0000000  0.00   -0.0006792   -0.0011636   -0.0000000
 C    3.5113837   -7.2030882    0.0000000  0.00    0.0018359    0.0022949   -0.0000000
 C    3.6430195   -2.3473170    0.0000000  0.00   -0.0017257   -0.0030760   -0.0000000
 C    2.8616285   -3.5020222    0.0000000  0.00   -0.0002990   -0.0004696   -0.0000000
 C    3.7816481    0.0000000    0.0000000  0.00    0.0054687   -0.0000000   -0.0000000
 C    2.9815279   -1.1258931    0.0000000  0.00    0.0008481   -0.0017360   -0.0000000
 C    1.4132252   -5.8586592    0.0000000  0.00    0.0032407    0.0022681   -0.0000000
 C    0.7100477   -7.0837760    0.0000000  0.00   -0.0020877    0.0005085   -0.0000000
 C    2.7546858   -8.3748925    0.0000000  0.00   -0.0008593   -0.0003941   -0.0000000
 C    1.3994977   -8.3111166    0.0000000  0.00    0.0022318    0.0017764   -0.0000000
 C    1.4232692   -3.3390105    0.0000000  0.00   -0.0005617   -0.0008200   -0.0000000
 C    0.7107121   -4.5848031    0.0000000  0.00   -0.0043562    0.0010799   -0.0000000
 C    1.5819262   -0.8031461    0.0000000  0.00    0.0015051   -0.0015123   -0.0000000
 C    0.7355921   -1.9978525    0.0000000  0.00    0.0000391   -0.0031600   -0.0000000
 H    8.8575486   -7.3667949    0.0000000  0.00   -0.0007068   -0.0015932   -0.0000000
 H    7.5552690   -9.4781201    0.0000000  0.00   -0.0008389   -0.0000408   -0.0000000
 H    5.1223785   -9.4297374    0.0000000  0.00    0.0025461   -0.0008543   -0.0000000
 H    8.9202103   -4.9411804    0.0000000  0.00   -0.0012774   -0.0003582   -0.0000000
 H    9.0135899   -2.5112203    0.0000000  0.00   -0.0013550   -0.0003380   -0.0000000
 H    9.0558282    0.0000000    0.0000000  0.00   -0.0006321   -0.0000000   -0.0000000
 H    3.2201843   -9.3580313    0.0000000  0.00   -0.0011066    0.0000588   -0.0000000
 H    0.8679206   -9.2594715    0.0000000  0.00    0.0015432   -0.0014862   -0.0000000
 C   -7.1114862    6.1005240    0.0000000  0.00    0.0003660    0.0000679   -0.0000000
 C   -5.6792013    6.0594474    0.0000000  0.00   -0.0005577    0.0004739   -0.0000000
 C   -7.7716553    7.3487040    0.0000000  0.00   -0.0000823    0.0003957   -0.0000000
 C   -4.9540519    7.2704607    0.0000000  0.00   -0.0016627   -0.0008615   -0.0000000
 C   -7.0471542    8.5180542    0.0000000  0.00   -0.0007175    0.0017449   -0.0000000
 C   -5.6551721    8.4840204    0.0000000  0.00    0.0007428    0.0003191   -0.0000000
 C   -7.1944381    3.6691686    0.0000000  0.00    0.0009724    0.0013157   -0.0000000
 C   -5.7533890    3.6322854    0.0000000  0.00    0.0005583    0.0004561   -0.0000000
 C   -7.8353975    4.9030560    0.0000000  0.00    0.0012245   -0.0002100   -0.0000000
 C   -4.9958312    4.8126443    0.0000000  0.00    0.0002862   -0.0006046   -0.0000000
 C   -7.2869215    1.2333707    0.0000000  0.00    0.0003535    0.0017284   -0.0000000
 C   -5.8473355    1.2227701    0.0000000  0.00    0.0015466    0.0018136   -0.0000000
 C   -7.9299081    2.4643318    0.0000000  0.00    0.0004663   -0.0005959   -0.0000000
 C   -5.0810962    2.3953279    0.0000000  0.00   -0.0000153    0.0012796   -0.0000000
 C   -7.9712446    0.0000000    0.0000000  0.00   -0.0012538   -0.0000000   -0.0000000
 C   -5.1690673    0.0000000    0.0000000  0.00   -0.0009798   -0.0000000   -0.0000000
 C   -3.5596579    4.7459341    0.0000000  0.00    0.0008125   -0.0020047   -0.0000000
 C   -2.8327851    5.9484579    0.0000000  0.00    0.0006792    0.0011636   -0.0000000
 C   -3.5113837    7.2030882    0.0000000  0.00   -0.0018359   -0.0022949   -0.0000000
 C   -3.6430195    2.3473170    0.0000000  0.00    0.0017257    0.0030760   -0.0000000
 C   -2.8616285    3.5020222    0.0000000  0.00    0.0002990    0.0004696   -0.0000000
 C   -3.7816481    0.0000000    0.0000000  0.00   -0.0054687   -0.0000000   -0.0000000
 C   -2.9815279    1.1258931    0.0000000  0.00   -0.0008481    0.0017360   -0.0000000
 C   -1.4132252    5.8586592    0.0000000  0.00   -0.0032407   -0.0022681   -0.0000000
 C   -0.7100477    7.0837760    0.0000000  0.00    0.0020877   -0.0005085   -0.0000000
 C   -2.7546858    8.3748925    0.0000000  0.00    0.0008593    0.0003941   -0.0000000
 C   -1.3994977    8.3111166    0.0000000  0.00   -0.0022318   -0.0017764   -0.0000000
 C   -1.4232692    3.3390105    0.0000000  0.00    0.0005617    0.0008200   -0.0000000
 C   -0.7107121    4.5848031    0.0000000  0.00    0.0043562   -0.0010799   -0.0000000
 C   -1.5819262    0.8031461    0.0000000  0.00   -0.0015051    0.0015123   -0.0000000
 C   -0.7355921    1.9978525    0.0000000  0.00   -0.0000391    0.0031600   -0.0000000
 H   -8.8575486    7.3667949    0.0000000  0.00    0.0007068    0.0015932   -0.0000000
 H   -7.5552690    9.4781201    0.0000000  0.00    0.0008389    0.0000408   -0.0000000
 H   -5.1223785    9.4297374    0.0000000  0.00   -0.0025461    0.0008543   -0.0000000
 H   -8.9202103    4.9411804    0.0000000  0.00    0.0012774    0.0003582   -0.0000000
 H   -9.0135899    2.5112203    0.0000000  0.00    0.0013550    0.0003380   -0.0000000
 H   -9.0558282    0.0000000    0.0000000  0.00    0.0006321   -0.0000000   -0.0000000
 H   -3.2201843    9.3580313    0.0000000  0.00    0.0011066   -0.0000588   -0.0000000
 H   -0.8679206    9.2594715    0.0000000  0.00   -0.0015432    0.0014862   -0.0000000
 C    7.1114862    6.1005240    0.0000000  0.00   -0.0003660    0.0000679   -0.0000000
 C    5.6792013    6.0594474    0.0000000  0.00    0.0005577    0.0004739   -0.0000000
 C    7.7716553    7.3487040    0.0000000  0.00    0.0000823    0.0003957   -0.0000000
 C    4.9540519    7.2704607    0.0000000  0.00    0.0016627   -0.0008615   -0.0000000
 C    7.0471542    8.5180542    0.0000000  0.00    0.0007175    0.0017449   -0.0000000
 C    5.6551721    8.4840204    0.0000000  0.00   -0.0007428    0.0003191   -0.0000000
 C    7.1944381    3.6691686    0.0000000  0.00   -0.0009724    0.0013157   -0.0000000
 C    5.7533890    3.6322854    0.0000000  0.00   -0.0005583    0.0004561   -0.0000000
 C    7.8353975    4.9030560    0.0000000  0.00   -0.0012245   -0.0002100   -0.0000000
 C    4.9958312    4.8126443    0.0000000  0.00   -0.0002862   -0.0006046   -0.0000000
 C    7.2869215    1.2333707    0.0000000  0.00   -0.0003535    0.0017284   -0.0000000
 C    5.8473355    1.2227701    0.0000000  0.00   -0.0015466    0.0018136   -0.0000000
 C    7.9299081    2.4643318    0.0000000  0.00   -0.0004663   -0.0005959   -0.0000000
 C    5.0810962    2.3953279    0.0000000  0.00    0.0000153    0.0012796   -0.0000000
 C    3.5596579    4.7459341    0.0000000  0.00   -0.0008125   -0.0020047   -0.0000000
 C    2.8327851    5.9484579    0.0000000  0.00   -0.0006792    0.0011636   -0.0000000
 C    3.5113837    7.2030882    0.0000000  0.00    0.0018359   -0.0022949   -0.0000000
 C    3.6430195    2.3473170    0.0000000  0.00   -0.0017257    0.0030760   -0.0000000
 C    2.8616285    3.5020222    0.0000000  0.00   -0.0002990    0.0004696   -0.0000000
 C    2.9815279    1.1258931    0.0000000  0.00    0.0008481    0.0017360   -0.0000000
 C    1.4132252    5.8586592    0.0000000  0.00    0.0032407   -0.0022681   -0.0000000
 C    0.7100477    7.0837760    0.0000000  0.00   -0.0020877   -0.0005085   -0.0000000
 C    2.7546858    8.3748925    0.0000000  0.00   -0.0008593    0.0003941   -0.0000000
 C    1.3994977    8.3111166    0.0000000  0.00    0.0022318   -0.0017764   -0.0000000
 C    1.4232692    3.3390105    0.0000000  0.00   -0.0005617    0.0008200   -0.0000000
 C    0.7107121    4.5848031    0.0000000  0.00   -0.0043562   -0.0010799   -0.0000000
 C    1.5819262    0.8031461    0.0000000  0.00    0.0015051    0.0015123   -0.0000000
 C    0.7355921    1.9978525    0.0000000  0.00    0.0000391    0.0031600   -0.0000000
 H    8.8575486    7.3667949    0.0000000  0.00   -0.0007068    0.0015932   -0.0000000
 H    7.5552690    9.4781201    0.0000000  0.00   -0.0008389    0.0000408   -0.0000000
 H    5.1223785    9.4297374    0.0000000  0.00    0.0025461    0.0008543   -0.0000000
 H    8.9202103    4.9411804    0.0000000  0.00   -0.0012774    0.0003582   -0.0000000
 H    9.0135899    2.5112203    0.0000000  0.00   -0.0013550    0.0003380   -0.0000000
 H    3.2201843    9.3580313    0.0000000  0.00   -0.0011066   -0.0000588   -0.0000000
 H    0.8679206    9.2594715    0.0000000  0.00    0.0015432    0.0014862   -0.0000000
 C   -7.1114862   -6.1005240    0.0000000  0.00    0.0003660   -0.0000679   -0.0000000
 C   -5.6792013   -6.0594474    0.0000000  0.00   -0.0005577   -0.0004739   -0.0000000
 C   -7.7716553   -7.3487040    0.0000000  0.00   -0.0000823   -0.0003957   -0.0000000
 C   -4.9540519   -7.2704607    0.0000000  0.00   -0.0016627    0.0008615   -0.0000000
 C   -7.0471542   -8.5180542    0.0000000  0.00   -0.0007175   -0.0017449   -0.0000000
 C   -5.6551721   -8.4840204    0.0000000  0.00    0.0007428   -0.0003191   -0.0000000
 C   -7.1944381   -3.6691686    0.0000000  0.00    0.0009724   -0.0013157   -0.0000000
 C   -5.7533890   -3.6322854    0.0000000  0.00    0.0005583   -0.0004561   -0.0000000
 C   -7.8353975   -4.9030560    0.0000000  0.00    0.0012245    0.0002100   -0.0000000
 C   -4.9958312   -4.8126443    0.0000000  0.00    0.0002862    0.0006046   -0.0000000
 C   -7.2869215   -1.2333707    0.0000000  0.00    0.0003535   -0.0017284   -0.0000000
 C   -5.8473355   -1.2227701    0.0000000  0.00    0.0015466   -0.0018136   -0.0000000
 C   -7.9299081   -2.4643318    0.0000000  0.00    0.0004663    0.0005959   -0.0000000
 C   -5.0810962   -2.3953279    0.0000000  0.00   -0.0000153   -0.0012796   -0.0000000
 C   -3.5596579   -4.7459341    0.0000000  0.00    0.0008125    0.0020047   -0.0000000
 C   -2.8327851   -5.9484579    0.0000000  0.00    0.0006792   -0.0011636   -0.0000000
 C   -3.5113837   -7.2030882    0.0000000  0.00   -0.0018359    0.0022949   -0.0000000
 C   -3.6430195   -2.3473170    0.0000000  0.00    0.0017257   -0.0030760   -0.0000000
 C   -2.8616285   -3.5020222    0.0000000  0.00    0.0002990   -0.0004696   -0.0000000
 C   -2.9815279   -1.1258931    0.0000000  0.00   -0.0008481   -0.0017360   -0.0000000
 C   -1.4132252   -5.8586592    0.0000000  0.00   -0.0032407    0.0022681   -0.0000000
 C   -0.7100477   -7.0837760    0.0000000  0.00    0.0020877    0.0005085   -0.0000000
 C   -2.7546858   -8.3748925    0.0000000  0.00    0.0008593   -0.0003941   -0.0000000
 C   -1.3994977   -8.3111166    0.0000000  0.00   -0.0022318    0.0017764   -0.0000000
 C   -1.4232692   -3.3390105    0.0000000  0.00    0.0005617   -0.0008200   -0.0000000
 C   -0.7107121   -4.5848031    0.0000000  0.00    0.0043562    0.0010799   -0.0000000
 C   -1.5819262   -0.8031461    0.0000000  0.00   -0.0015051   -0.0015123   -0.0000000
 C   -0.7355921   -1.9978525    0.0000000  0.00   -0.0000391   -0.0031600   -0.0000000
 H   -8.8575486   -7.3667949    0.0000000  0.00    0.0007068   -0.0015932   -0.0000000
 H   -7.5552690   -9.4781201    0.0000000  0.00    0.0008389   -0.0000408   -0.0000000
 H   -5.1223785   -9.4297374    0.0000000  0.00   -0.0025461   -0.0008543   -0.0000000
 H   -8.9202103   -4.9411804    0.0000000  0.00    0.0012774   -0.0003582   -0.0000000
 H   -9.0135899   -2.5112203    0.0000000  0.00    0.0013550   -0.0003380   -0.0000000
 H   -3.2201843   -9.3580313    0.0000000  0.00    0.0011066    0.0000588   -0.0000000
 H   -0.8679206   -9.2594715    0.0000000  0.00   -0.0015432   -0.0014862   -0.0000000
