148
 Energy =   -4513.4182948210
 C    7.1249837   -6.0962656    0.0000000  0.00    0.0009259    0.0005938   -0.0000000
 C    5.6896179   -6.0567533    0.0000000  0.00   -0.0017915   -0.0013632   -0.0000000
 C    7.7860166   -7.3460254    0.0000000  0.00    0.0007275   -0.0009124   -0.0000000
 C    4.9661518   -7.2670217    0.0000000  0.00    0.0007627   -0.0003040   -0.0000000
 C    7.0621452   -8.5144495    0.0000000  0.00    0.0021011   -0.0000898   -0.0000000
 C    5.6679224   -8.4786595    0.0000000  0.00   -0.0011821   -0.0018374   -0.0000000
 C    7.2033739   -3.6631386    0.0000000  0.00   -0.0005730    0.0001509   -0.0000000
 C    5.7585890   -3.6292733    0.0000000  0.00   -0.0028951    0.0010242   -0.0000000
 C    7.8467659   -4.9008294    0.0000000  0.00    0.0003725    0.0006239   -0.0000000
 C    5.0034757   -4.8087456    0.0000000  0.00    0.0019020   -0.0002307   -0.0000000
 C    7.2901217   -1.2281575    0.0000000  0.00    0.0010294    0.0007009   -0.0000000
 C    5.8518983   -1.2197952    0.0000000  0.00   -0.0026830    0.0001672   -0.0000000
 C    7.9344968   -2.4656085    0.0000000  0.00   -0.0008239    0.0018045   -0.0000000
 C    5.0854177   -2.3953730    0.0000000  0.00    0.0040047    0.0011151   -0.0000000
 C    7.9731593    0.0000000    0.0000000  0.00    0.0010080   -0.0000000   -0.0000000
 C    5.1728373    0.0000000    0.0000000  0.00    0.0048805   -0.0000000   -0.0000000
 C    3.5658377   -4.7409753    0.0000000  0.00   -0.0042967   -0.0012964   -0.0000000
 C    2.8383516   -5.9456941    0.0000000  0.00    0.0019794    0.0026220   -0.0000000
 C    3.5192570   -7.1970546    0.0000000  0.00   -0.0023417   -0.0000694   -0.0000000
 C    3.6467882   -2.3475068    0.0000000  0.00   -0.0024873    0.0018949   -0.0000000
 C    2.8679006   -3.5020281    0.0000000  0.00    0.0020637    0.0017110   -0.0000000
 C    3.7828511    0.0000000    0.0000000  0.00   -0.0021621   -0.0000000   -0.0000000
 C    2.9842972   -1.1240445    0.0000000  0.00    0.0018469   -0.0008015   -0.0000000
 C    1.4174314   -5.8553453    0.0000000  0.00   -0.0047157   -0.0015745   -0.0000000
 C    0.7139982   -7.0784114    0.0000000  0.00    0.0038870   -0.0005173   -0.0000000
 C    2.7641734   -8.3652904    0.0000000  0.00    0.0009910    0.0001111   -0.0000000
 C    1.4043210   -8.2997391    0.0000000  0.00   -0.0029851   -0.0001422   -0.0000000
 C    1.4228336   -3.3390102    0.0000000  0.00   -0.0021128   -0.0004690   -0.0000000
 C    0.7132664   -4.5777118    0.0000000  0.00    0.0038892    0.0002688   -0.0000000
 C    1.5819491   -0.7995200    0.0000000  0.00    0.0000589    0.0002659   -0.0000000
 C    0.7359547   -1.9966817    0.0000000  0.00    0.0011905    0.0001656   -0.0000000
 H    8.8698037   -7.3649277    0.0000000  0.00    0.0014714    0.0012437   -0.0000000
 H    7.5704985   -9.4716415    0.0000000  0.00    0.0007751   -0.0004046   -0.0000000
 H    5.1372119   -9.4194078    0.0000000  0.00    0.0016466   -0.0009465   -0.0000000
 H    8.9308631   -4.9359521    0.0000000  0.00    0.0011833    0.0001892   -0.0000000
 H    9.0183134   -2.5104752    0.0000000  0.00   -0.0010609    0.0011666   -0.0000000
 H    9.0578337    0.0000000    0.0000000  0.00    0.0003984   -0.0000000   -0.0000000
 H    3.2382731   -9.3352336    0.0000000  0.00   -0.0008563    0.0011070   -0.0000000
 H    0.8665371   -9.2321127    0.0000000  0.00   -0.0012634   -0.0002341   -0.0000000
 C   -7.1249837    6.0962656    0.0000000  0.00   -0.0009259   -0.0005938   -0.0000000
 C   -5.6896179    6.0567533    0.0000000  0.00    0.0017915    0.0013632   -0.0000000
 C   -7.7860166    7.3460254    0.0000000  0.00   -0.0007275    0.0009124   -0.0000000
 C   -4.9661518    7.2670217    0.0000000  0.00   -0.0007627    0.0003040   -0.0000000
 C   -7.0621452    8.5144495    0.0000000  0.00   -0.0021011    0.0000898   -0.0000000
 C   -5.6679224    8.4786595    0.0000000  0.00    0.0011821    0.0018374   -0.0000000
 C   -7.2033739    3.6631386    0.0000000  0.00    0.0005730   -0.0001509   -0.0000000
 C   -5.7585890    3.6292733    0.0000000  0.00    0.0028951   -0.0010242   -0.0000000
 C   -7.8467659    4.9008294    0.0000000  0.00   -0.0003725   -0.0006239   -0.0000000
 C   -5.0034757    4.8087456    0.0000000  0.00   -0.0019020    0.0002307   -0.0000000
 C   -7.2901217    1.2281575    0.0000000  0.00   -0.0010294   -0.0007009   -0.0000000
 C   -5.8518983    1.2197952    0.0000000  0.00    0.0026830   -0.0001672   -0.0000000
 C   -7.9344968    2.4656085    0.0000000  0.00    0.0008239   -0.0018045   -0.0000000
 C   -5.0854177    2.3953730    0.0000000  0.00   -0.0040047   -0.0011151   -0.0000000
 C   -7.9731593    0.0000000    0.0000000  0.00   -0.0010080   -0.0000000   -0.0000000
 C   -5.1728373    0.0000000    0.0000000  0.00   -0.0048805   -0.0000000   -0.0000000
 C   -3.5658377    4.7409753    0.0000000  0.00    0.0042967    0.0012964   -0.0000000
 C   -2.8383516    5.9456941    0.0000000  0.00   -0.0019794   -0.0026220   -0.0000000
 C   -3.5192570    7.1970546    0.0000000  0.00    0.0023417    0.0000694   -0.0000000
 C   -3.6467882    2.3475068    0.0000000  0.00    0.0024873   -0.0018949   -0.0000000
 C   -2.8679006    3.5020281    0.0000000  0.00   -0.0020637   -0.0017110   -0.0000000
 C   -3.7828511    0.0000000    0.0000000  0.00    0.0021621   -0.0000000   -0.0000000
 C   -2.9842972    1.1240445    0.0000000  0.00   -0.0018469    0.0008015   -0.0000000
 C   -1.4174314    5.8553453    0.0000000  0.00    0.0047157    0.0015745   -0.0000000
 C   -0.7139982    7.0784114    0.0000000  0.00   -0.0038870    0.0005173   -0.0000000
 C   -2.7641734    8.3652904    0.0000000  0.00   -0.0009910   -0.0001111   -0.0000000
 C   -1.4043210    8.2997391    0.0000000  0.00    0.0029851    0.0001422   -0.0000000
 C   -1.4228336    3.3390102    0.0000000  0.00    0.0021128    0.0004690   -0.0000000
 C   -0.7132664    4.5777118    0.0000000  0.00   -0.0038892   -0.0002688   -0.0000000
 C   -1.5819491    0.7995200    0.0000000  0.00   -0.0000589   -0.0002659   -0.0000000
 C   -0.7359547    1.9966817    0.0000000  0.00   -0.0011905   -0.0001656   -0.0000000
 H   -8.8698037    7.3649277    0.0000000  0.00   -0.0014714   -0.0012437   -0.0000000
 H   -7.5704985    9.4716415    0.0000000  0.00   -0.0007751    0.0004046   -0.0000000
 H   -5.1372119    9.4194078    0.0000000  0.00   -0.0016466    0.0009465   -0.0000000
 H   -8.9308631    4.9359521    0.0000000  0.00   -0.0011833   -0.0001892   -0.0000000
 H   -9.0183134    2.5104752    0.0000000  0.00    0.0010609   -0.0011666   -0.0000000
 H   -9.0578337    0.0000000    0.0000000  0.00   -0.0003984   -0.0000000   -0.0000000
 H   -3.2382731    9.3352336    0.0000000  0.00    0.0008563   -0.0011070   -0.0000000
 H   -0.8665371    9.2321127    0.0000000  0.00    0.0012634    0.0002341   -0.0000000
 C    7.1249837    6.0962656    0.0000000  0.00    0.0009259   -0.0005938   -0.0000000
 C    5.6896179    6.0567533    0.0000000  0.00   -0.0017915    0.0013632   -0.0000000
 C    7.7860166    7.3460254    0.0000000  0.00    0.0007275    0.0009124   -0.0000000
 C    4.9661518    7.2670217    0.0000000  0.00    0.0007627    0.0003040   -0.0000000
 C    7.0621452    8.5144495    0.0000000  0.00    0.0021011    0.0000898   -0.0000000
 C    5.6679224    8.4786595    0.0000000  0.00   -0.0011821    0.0018374   -0.0000000
 C    7.2033739    3.6631386    0.0000000  0.00   -0.0005730   -0.0001509   -0.0000000
 C    5.7585890    3.6292733    0.0000000  0.00   -0.0028951   -0.0010242   -0.0000000
 C    7.8467659    4.9008294    0.0000000  0.00    0.0003725   -0.0006239   -0.0000000
 C    5.0034757    4.8087456    0.0000000  0.00    0.0019020    0.0002307   -0.0000000
 C    7.2901217    1.2281575    0.0000000  0.00    0.0010294   -0.0007009   -0.0000000
 C    5.8518983    1.2197952    0.0000000  0.00   -0.0026830   -0.0001672   -0.0000000
 C    7.9344968    2.4656085    0.0000000  0.00   -0.0008239   -0.0018045   -0.0000000
 C    5.0854177    2.3953730    0.0000000  0.00    0.0040047   -0.0011151   -0.0000000
 C    3.5658377    4.7409753    0.0000000  0.00   -0.0042967    0.0012964   -0.0000000
 C    2.8383516    5.9456941    0.0000000  0.00    0.0019794   -0.0026220   -0.0000000
 C    3.5192570    7.1970546    0.0000000  0.00   -0.0023417    0.0000694   -0.0000000
 C    3.6467882    2.3475068    0.0000000  0.00   -0.0024873   -0.0018949   -0.0000000
 C    2.8679006    3.5020281    0.0000000  0.00    0.0020637   -0.0017110   -0.0000000
 C    2.9842972    1.1240445    0.0000000  0.00    0.0018469    0.0008015   -0.0000000
 C    1.4174314    5.8553453    0.0000000  0.00   -0.0047157    0.0015745   -0.0000000
 C    0.7139982    7.0784114    0.0000000  0.00    0.0038870    0.0005173   -0.0000000
 C    2.7641734    8.3652904    0.0000000  0.00    0.0009910   -0.0001111   -0.0000000
 C    1.4043210    8.2997391    0.0000000  0.00   -0.0029851    0.0001422   -0.0000000
 C    1.4228336    3.3390102    0.0000000  0.00   -0.0021128    0.0004690   -0.0000000
 C    0.7132664    4.5777118    0.0000000  0.00    0.0038892   -0.0002688   -0.0000000
 C    1.5819491    0.7995200    0.0000000  0.00    0.0000589   -0.0002659   -0.0000000
 C    0.7359547    1.9966817    0.0000000  0.00    0.0011905   -0.0001656   -0.0000000
 H    8.8698037    7.3649277    0.0000000  0.00    0.0014714   -0.0012437   -0.0000000
 H    7.5704985    9.4716415    0.0000000  0.00    0.0007751    0.0004046   -0.0000000
 H    5.1372119    9.4194078    0.0000000  0.00    0.0016466    0.0009465   -0.0000000
 H    8.9308631    4.9359521    0.0000000  0.00    0.0011833   -0.0001892   -0.0000000
 H    9.0183134    2.5104752    0.0000000  0.00   -0.0010609   -0.0011666   -0.0000000
 H    3.2382731    9.3352336    0.0000000  0.00   -0.0008563   -0.0011070   -0.0000000
 H    0.8665371    9.2321127    0.0000000  0.00   -0.0012634    0.0002341   -0.0000000
 C   -7.1249837   -6.0962656    0.0000000  0.00   -0.0009259    0.0005938   -0.0000000
 C   -5.6896179   -6.0567533    0.0000000  0.00    0.0017915   -0.0013632   -0.0000000
 C   -7.7860166   -7.3460254    0.0000000  0.00   -0.0007275   -0.0009124   -0.0000000
 C   -4.9661518   -7.2670217    0.0000000  0.00   -0.0007627   -0.0003040   -0.0000000
 C   -7.0621452   -8.5144495    0.0000000  0.00   -0.0021011   -0.0000898   -0.0000000
 C   -5.6679224   -8.4786595    0.0000000  0.00    0.0011821   -0.0018374   -0.0000000
 C   -7.2033739   -3.6631386    0.0000000  0.00    0.0005730    0.0001509   -0.0000000
 C   -5.7585890   -3.6292733    0.0000000  0.00    0.0028951    0.0010242   -0.0000000
 C   -7.8467659   -4.9008294    0.0000000  0.00   -0.0003725    0.0006239   -0.0000000
 C   -5.0034757   -4.8087456    0.0000000  0.00   -0.0019020   -0.0002307   -0.0000000
 C   -7.2901217   -1.2281575    0.0000000  0.00   -0.0010294    0.0007009   -0.0000000
 C   -5.8518983   -1.2197952    0.0000000  0.00    0.0026830    0.0001672   -0.0000000
 C   -7.9344968   -2.4656085    0.0000000  0.00    0.0008239    0.0018045   -0.0000000
 C   -5.0854177   -2.3953730    0.0000000  0.00   -0.0040047    0.0011151   -0.0000000
 C   -3.5658377   -4.7409753    0.0000000  0.00    0.0042967   -0.0012964   -0.0000000
 C   -2.8383516   -5.9456941    0.0000000  0.00   -0.0019794    0.0026220   -0.0000000
 C   -3.5192570   -7.1970546    0.0000000  0.00    0.0023417   -0.0000694   -0.0000000
 C   -3.6467882   -2.3475068    0.0000000  0.00    0.0024873    0.0018949   -0.0000000
 C   -2.8679006   -3.5020281    0.0000000  0.00   -0.0020637    0.0017110   -0.0000000
 C   -2.9842972   -1.1240445    0.0000000  0.00   -0.0018469   -0.0008015   -0.0000000
 C   -1.4174314   -5.8553453    0.0000000  0.00    0.0047157   -0.0015745   -0.0000000
 C   -0.7139982   -7.0784114    0.0000000  0.00   -0.0038870   -0.0005173   -0.0000000
 C   -2.7641734   -8.3652904    0.0000000  0.00   -0.0009910    0.0001111   -0.0000000
 C   -1.4043210   -8.2997391    0.0000000  0.00    0.0029851   -0.0001422   -0.0000000
 C   -1.4228336   -3.3390102    0.0000000  0.00    0.0021128   -0.0004690   -0.0000000
 C   -0.7132664   -4.5777118    0.0000000  0.00   -0.0038892    0.0002688   -0.0000000
 C   -1.5819491   -0.7995200    0.0000000  0.00   -0.0000589    0.0002659   -0.0000000
 C   -0.7359547   -1.9966817    0.0000000  0.00   -0.0011905    0.0001656   -0.0000000
 H   -8.8698037   -7.3649277    0.0000000  0.00   -0.0014714    0.0012437   -0.0000000
 H   -7.5704985   -9.4716415    0.0000000  0.00   -0.0007751   -0.0004046   -0.0000000
 H   -5.1372119   -9.4194078    0.0000000  0.00   -0.0016466   -0.0009465   -0.0000000
 H   -8.9308631   -4.9359521    0.0000000  0.00   -0.0011833    0.0001892   -0.0000000
 H   -9.0183134   -2.5104752    0.0000000  0.00    0.0010609    0.0011666   -0.0000000
 H   -3.2382731   -9.3352336    0.0000000  0.00    0.0008563    0.0011070   -0.0000000
 H   -0.8665371   -9.2321127    0.0000000  0.00    0.0012634   -0.0002341   -0.0000000
