148
 Energy =   -4513.4070400310
 C    7.1276509   -6.1027081    0.0000000  0.00    0.0007243    0.0000561   -0.0000000
 C    5.6920034   -6.0671815    0.0000000  0.00    0.0009456    0.0010235   -0.0000000
 C    7.7915263   -7.3492534    0.0000000  0.00    0.0000118   -0.0000961   -0.0000000
 C    4.9694371   -7.2781714    0.0000000  0.00    0.0005223   -0.0005466   -0.0000000
 C    7.0690527   -8.5215184    0.0000000  0.00   -0.0001062   -0.0002406   -0.0000000
 C    5.6774303   -8.4910549    0.0000000  0.00    0.0005438    0.0004382   -0.0000000
 C    7.1978490   -3.6676547    0.0000000  0.00   -0.0005336   -0.0002877   -0.0000000
 C    5.7544817   -3.6353163    0.0000000  0.00    0.0001335    0.0014995   -0.0000000
 C    7.8468175   -4.9027424    0.0000000  0.00    0.0004082   -0.0001851   -0.0000000
 C    5.0016653   -4.8193997    0.0000000  0.00   -0.0002568    0.0001119   -0.0000000
 C    7.2717472   -1.2302405    0.0000000  0.00    0.0002809    0.0004210   -0.0000000
 C    5.8375443   -1.2223161    0.0000000  0.00   -0.0009145    0.0008295   -0.0000000
 C    7.9252591   -2.4649633    0.0000000  0.00   -0.0002020   -0.0002790   -0.0000000
 C    5.0792852   -2.4028767    0.0000000  0.00    0.0008101   -0.0011789   -0.0000000
 C    7.9564047    0.0000000    0.0000000  0.00    0.0000965   -0.0000000   -0.0000000
 C    5.1599509    0.0000000    0.0000000  0.00    0.0016766   -0.0000000   -0.0000000
 C    3.5689354   -4.7586793    0.0000000  0.00    0.0000841    0.0014283   -0.0000000
 C    2.8416118   -5.9583289    0.0000000  0.00   -0.0006297   -0.0011677   -0.0000000
 C    3.5243595   -7.2123088    0.0000000  0.00    0.0011368    0.0007645   -0.0000000
 C    3.6435495   -2.3597117    0.0000000  0.00    0.0003789    0.0008267   -0.0000000
 C    2.8674422   -3.5134551    0.0000000  0.00    0.0003414   -0.0010899   -0.0000000
 C    3.7690214    0.0000000    0.0000000  0.00   -0.0007645   -0.0000000   -0.0000000
 C    2.9789842   -1.1345339    0.0000000  0.00    0.0005985    0.0009109   -0.0000000
 C    1.4180710   -5.8709174    0.0000000  0.00    0.0008508    0.0006764   -0.0000000
 C    0.7139424   -7.0952937    0.0000000  0.00    0.0001097    0.0001407   -0.0000000
 C    2.7673226   -8.3797141    0.0000000  0.00   -0.0008629    0.0007824   -0.0000000
 C    1.4066073   -8.3161876    0.0000000  0.00    0.0004473   -0.0000307   -0.0000000
 C    1.4297386   -3.3607333    0.0000000  0.00   -0.0001689    0.0002360   -0.0000000
 C    0.7150574   -4.5960359    0.0000000  0.00    0.0003716   -0.0002869   -0.0000000
 C    1.5823136   -0.8420463    0.0000000  0.00   -0.0004200    0.0001839   -0.0000000
 C    0.7462378   -2.0080562    0.0000000  0.00    0.0005111   -0.0003446   -0.0000000
 H    8.8753931   -7.3655445    0.0000000  0.00    0.0001585   -0.0004438   -0.0000000
 H    7.5811858   -9.4768122    0.0000000  0.00    0.0001657   -0.0000977   -0.0000000
 H    5.1491279   -9.4331581    0.0000000  0.00   -0.0000779   -0.0009242   -0.0000000
 H    8.9309535   -4.9345356    0.0000000  0.00    0.0008911    0.0008195   -0.0000000
 H    9.0093039   -2.5040455    0.0000000  0.00   -0.0007746    0.0020359   -0.0000000
 H    9.0413361    0.0000000    0.0000000  0.00    0.0004261   -0.0000000   -0.0000000
 H    3.2419796   -9.3495821    0.0000000  0.00   -0.0006193    0.0000696   -0.0000000
 H    0.8691746   -9.2488558    0.0000000  0.00    0.0001929   -0.0001647   -0.0000000
 C   -7.1276509    6.1027081    0.0000000  0.00   -0.0007243   -0.0000561   -0.0000000
 C   -5.6920034    6.0671815    0.0000000  0.00   -0.0009456   -0.0010235   -0.0000000
 C   -7.7915263    7.3492534    0.0000000  0.00   -0.0000118    0.0000961   -0.0000000
 C   -4.9694371    7.2781714    0.0000000  0.00   -0.0005223    0.0005466   -0.0000000
 C   -7.0690527    8.5215184    0.0000000  0.00    0.0001062    0.0002406   -0.0000000
 C   -5.6774303    8.4910549    0.0000000  0.00   -0.0005438   -0.0004382   -0.0000000
 C   -7.1978490    3.6676547    0.0000000  0.00    0.0005336    0.0002877   -0.0000000
 C   -5.7544817    3.6353163    0.0000000  0.00   -0.0001335   -0.0014995   -0.0000000
 C   -7.8468175    4.9027424    0.0000000  0.00   -0.0004082    0.0001851   -0.0000000
 C   -5.0016653    4.8193997    0.0000000  0.00    0.0002568   -0.0001119   -0.0000000
 C   -7.2717472    1.2302405    0.0000000  0.00   -0.0002809   -0.0004210   -0.0000000
 C   -5.8375443    1.2223161    0.0000000  0.00    0.0009145   -0.0008295   -0.0000000
 C   -7.9252591    2.4649633    0.0000000  0.00    0.0002020    0.0002790   -0.0000000
 C   -5.0792852    2.4028767    0.0000000  0.00   -0.0008101    0.0011789   -0.0000000
 C   -7.9564047    0.0000000    0.0000000  0.00   -0.0000965   -0.0000000   -0.0000000
 C   -5.1599509    0.0000000    0.0000000  0.00   -0.0016766   -0.0000000   -0.0000000
 C   -3.5689354    4.7586793    0.0000000  0.00   -0.0000841   -0.0014283   -0.0000000
 C   -2.8416118    5.9583289    0.0000000  0.00    0.0006297    0.0011677   -0.0000000
 C   -3.5243595    7.2123088    0.0000000  0.00   -0.0011368   -0.0007645   -0.0000000
 C   -3.6435495    2.3597117    0.0000000  0.00   -0.0003789   -0.0008267   -0.0000000
 C   -2.8674422    3.5134551    0.0000000  0.00   -0.0003414    0.0010899   -0.0000000
 C   -3.7690214    0.0000000    0.0000000  0.00    0.0007645   -0.0000000   -0.0000000
 C   -2.9789842    1.1345339    0.0000000  0.00   -0.0005985   -0.0009109   -0.0000000
 C   -1.4180710    5.8709174    0.0000000  0.00   -0.0008508   -0.0006764   -0.0000000
 C   -0.7139424    7.0952937    0.0000000  0.00   -0.0001097   -0.0001407   -0.0000000
 C   -2.7673226    8.3797141    0.0000000  0.00    0.0008629   -0.0007824   -0.0000000
 C   -1.4066073    8.3161876    0.0000000  0.00   -0.0004473    0.0000307   -0.0000000
 C   -1.4297386    3.3607333    0.0000000  0.00    0.0001689   -0.0002360   -0.0000000
 C   -0.7150574    4.5960359    0.0000000  0.00   -0.0003716    0.0002869   -0.0000000
 C   -1.5823136    0.8420463    0.0000000  0.00    0.0004200   -0.0001839   -0.0000000
 C   -0.7462378    2.0080562    0.0000000  0.00   -0.0005111    0.0003446   -0.0000000
 H   -8.8753931    7.3655445    0.0000000  0.00   -0.0001585    0.0004438   -0.0000000
 H   -7.5811858    9.4768122    0.0000000  0.00   -0.0001657    0.0000977   -0.0000000
 H   -5.1491279    9.4331581    0.0000000  0.00    0.0000779    0.0009242   -0.0000000
 H   -8.9309535    4.9345356    0.0000000  0.00   -0.0008911   -0.0008195   -0.0000000
 H   -9.0093039    2.5040455    0.0000000  0.00    0.0007746   -0.0020359   -0.0000000
 H   -9.0413361    0.0000000    0.0000000  0.00   -0.0004261   -0.0000000   -0.0000000
 H   -3.2419796    9.3495821    0.0000000  0.00    0.0006193   -0.0000696   -0.0000000
 H   -0.8691746    9.2488558    0.0000000  0.00   -0.0001929    0.0001647   -0.0000000
 C    7.1276509    6.1027081    0.0000000  0.00    0.0007243   -0.0000561   -0.0000000
 C    5.6920034    6.0671815    0.0000000  0.00    0.0009456   -0.0010235   -0.0000000
 C    7.7915263    7.3492534    0.0000000  0.00    0.0000118    0.0000961   -0.0000000
 C    4.9694371    7.2781714    0.0000000  0.00    0.0005223    0.0005466   -0.0000000
 C    7.0690527    8.5215184    0.0000000  0.00   -0.0001062    0.0002406   -0.0000000
 C    5.6774303    8.4910549    0.0000000  0.00    0.0005438   -0.0004382   -0.0000000
 C    7.1978490    3.6676547    0.0000000  0.00   -0.0005336    0.0002877   -0.0000000
 C    5.7544817    3.6353163    0.0000000  0.00    0.0001335   -0.0014995   -0.0000000
 C    7.8468175    4.9027424    0.0000000  0.00    0.0004082    0.0001851   -0.0000000
 C    5.0016653    4.8193997    0.0000000  0.00   -0.0002568   -0.0001119   -0.0000000
 C    7.2717472    1.2302405    0.0000000  0.00    0.0002809   -0.0004210   -0.0000000
 C    5.8375443    1.2223161    0.0000000  0.00   -0.0009145   -0.0008295   -0.0000000
 C    7.9252591    2.4649633    0.0000000  0.00   -0.0002020    0.0002790   -0.0000000
 C    5.0792852    2.4028767    0.0000000  0.00    0.0008101    0.0011789   -0.0000000
 C    3.5689354    4.7586793    0.0000000  0.00    0.0000841   -0.0014283   -0.0000000
 C    2.8416118    5.9583289    0.0000000  0.00   -0.0006297    0.0011677   -0.0000000
 C    3.5243595    7.2123088    0.0000000  0.00    0.0011368   -0.0007645   -0.0000000
 C    3.6435495    2.3597117    0.0000000  0.00    0.0003789   -0.0008267   -0.0000000
 C    2.8674422    3.5134551    0.0000000  0.00    0.0003414    0.0010899   -0.0000000
 C    2.9789842    1.1345339    0.0000000  0.00    0.0005985   -0.0009109   -0.0000000
 C    1.4180710    5.8709174    0.0000000  0.00    0.0008508   -0.0006764   -0.0000000
 C    0.7139424    7.0952937    0.0000000  0.00    0.0001097   -0.0001407   -0.0000000
 C    2.7673226    8.3797141    0.0000000  0.00   -0.0008629   -0.0007824   -0.0000000
 C    1.4066073    8.3161876    0.0000000  0.00    0.0004473    0.0000307   -0.0000000
 C    1.4297386    3.3607333    0.0000000  0.00   -0.0001689   -0.0002360   -0.0000000
 C    0.7150574    4.5960359    0.0000000  0.00    0.0003716    0.0002869   -0.0000000
 C    1.5823136    0.8420463    0.0000000  0.00   -0.0004200   -0.0001839   -0.0000000
 C    0.7462378    2.0080562    0.0000000  0.00    0.0005111    0.0003446   -0.0000000
 H    8.8753931    7.3655445    0.0000000  0.00    0.0001585    0.0004438   -0.0000000
 H    7.5811858    9.4768122    0.0000000  0.00    0.0001657    0.0000977   -0.0000000
 H    5.1491279    9.4331581    0.0000000  0.00   -0.0000779    0.0009242   -0.0000000
 H    8.9309535    4.9345356    0.0000000  0.00    0.0008911   -0.0008195   -0.0000000
 H    9.0093039    2.5040455    0.0000000  0.00   -0.0007746   -0.0020359   -0.0000000
 H    3.2419796    9.3495821    0.0000000  0.00   -0.0006193   -0.0000696   -0.0000000
 H    0.8691746    9.2488558    0.0000000  0.00    0.0001929    0.0001647   -0.0000000
 C   -7.1276509   -6.1027081    0.0000000  0.00   -0.0007243    0.0000561   -0.0000000
 C   -5.6920034   -6.0671815    0.0000000  0.00   -0.0009456    0.0010235   -0.0000000
 C   -7.7915263   -7.3492534    0.0000000  0.00   -0.0000118   -0.0000961   -0.0000000
 C   -4.9694371   -7.2781714    0.0000000  0.00   -0.0005223   -0.0005466   -0.0000000
 C   -7.0690527   -8.5215184    0.0000000  0.00    0.0001062   -0.0002406   -0.0000000
 C   -5.6774303   -8.4910549    0.0000000  0.00   -0.0005438    0.0004382   -0.0000000
 C   -7.1978490   -3.6676547    0.0000000  0.00    0.0005336   -0.0002877   -0.0000000
 C   -5.7544817   -3.6353163    0.0000000  0.00   -0.0001335    0.0014995   -0.0000000
 C   -7.8468175   -4.9027424    0.0000000  0.00   -0.0004082   -0.0001851   -0.0000000
 C   -5.0016653   -4.8193997    0.0000000  0.00    0.0002568    0.0001119   -0.0000000
 C   -7.2717472   -1.2302405    0.0000000  0.00   -0.0002809    0.0004210   -0.0000000
 C   -5.8375443   -1.2223161    0.0000000  0.00    0.0009145    0.0008295   -0.0000000
 C   -7.9252591   -2.4649633    0.0000000  0.00    0.0002020   -0.0002790   -0.0000000
 C   -5.0792852   -2.4028767    0.0000000  0.00   -0.0008101   -0.0011789   -0.0000000
 C   -3.5689354   -4.7586793    0.0000000  0.00   -0.0000841    0.0014283   -0.0000000
 C   -2.8416118   -5.9583289    0.0000000  0.00    0.0006297   -0.0011677   -0.0000000
 C   -3.5243595   -7.2123088    0.0000000  0.00   -0.0011368    0.0007645   -0.0000000
 C   -3.6435495   -2.3597117    0.0000000  0.00   -0.0003789    0.0008267   -0.0000000
 C   -2.8674422   -3.5134551    0.0000000  0.00   -0.0003414   -0.0010899   -0.0000000
 C   -2.9789842   -1.1345339    0.0000000  0.00   -0.0005985    0.0009109   -0.0000000
 C   -1.4180710   -5.8709174    0.0000000  0.00   -0.0008508    0.0006764   -0.0000000
 C   -0.7139424   -7.0952937    0.0000000  0.00   -0.0001097    0.0001407   -0.0000000
 C   -2.7673226   -8.3797141    0.0000000  0.00    0.0008629    0.0007824   -0.0000000
 C   -1.4066073   -8.3161876    0.0000000  0.00   -0.0004473   -0.0000307   -0.0000000
 C   -1.4297386   -3.3607333    0.0000000  0.00    0.0001689    0.0002360   -0.0000000
 C   -0.7150574   -4.5960359    0.0000000  0.00   -0.0003716   -0.0002869   -0.0000000
 C   -1.5823136   -0.8420463    0.0000000  0.00    0.0004200    0.0001839   -0.0000000
 C   -0.7462378   -2.0080562    0.0000000  0.00   -0.0005111   -0.0003446   -0.0000000
 H   -8.8753931   -7.3655445    0.0000000  0.00   -0.0001585   -0.0004438   -0.0000000
 H   -7.5811858   -9.4768122    0.0000000  0.00   -0.0001657   -0.0000977   -0.0000000
 H   -5.1491279   -9.4331581    0.0000000  0.00    0.0000779   -0.0009242   -0.0000000
 H   -8.9309535   -4.9345356    0.0000000  0.00   -0.0008911    0.0008195   -0.0000000
 H   -9.0093039   -2.5040455    0.0000000  0.00    0.0007746    0.0020359   -0.0000000
 H   -3.2419796   -9.3495821    0.0000000  0.00    0.0006193    0.0000696   -0.0000000
 H   -0.8691746   -9.2488558    0.0000000  0.00   -0.0001929   -0.0001647   -0.0000000
