148
 Energy =   -4513.1991387610
 C    7.1044360   -6.1024170    0.0000000  0.00    0.0005539   -0.0030811   -0.0000000
 C    5.6722460   -6.0618776    0.0000000  0.00    0.0011948    0.0001836   -0.0000000
 C    7.7615163   -7.3518933    0.0000000  0.00    0.0004862    0.0005798   -0.0000000
 C    4.9479475   -7.2715776    0.0000000  0.00    0.0016232   -0.0025284   -0.0000000
 C    7.0372661   -8.5236594    0.0000000  0.00   -0.0009144    0.0003347   -0.0000000
 C    5.6472592   -8.4897692    0.0000000  0.00   -0.0014118    0.0001447   -0.0000000
 C    7.1951282   -3.6669496    0.0000000  0.00   -0.0011060   -0.0005440   -0.0000000
 C    5.7511775   -3.6334245    0.0000000  0.00    0.0014577    0.0006065   -0.0000000
 C    7.8300399   -4.9078073    0.0000000  0.00   -0.0008621   -0.0006521   -0.0000000
 C    4.9930458   -4.8122809    0.0000000  0.00   -0.0012952    0.0012678   -0.0000000
 C    7.2957688   -1.2287321    0.0000000  0.00   -0.0008552    0.0015677   -0.0000000
 C    5.8562010   -1.2209817    0.0000000  0.00    0.0001832    0.0022887   -0.0000000
 C    7.9298379   -2.4714229    0.0000000  0.00    0.0008927    0.0002302   -0.0000000
 C    5.0827703   -2.3969688    0.0000000  0.00   -0.0006444    0.0003921   -0.0000000
 C    7.9749618    0.0000000    0.0000000  0.00   -0.0014423   -0.0000000   -0.0000000
 C    5.1781083    0.0000000    0.0000000  0.00    0.0025345   -0.0000000   -0.0000000
 C    3.5579655   -4.7433701    0.0000000  0.00    0.0006399   -0.0007095   -0.0000000
 C    2.8286874   -5.9481922    0.0000000  0.00    0.0014068   -0.0000555   -0.0000000
 C    3.5083233   -7.2056311    0.0000000  0.00    0.0003211    0.0004602   -0.0000000
 C    3.6451542   -2.3448042    0.0000000  0.00    0.0008346    0.0062341   -0.0000000
 C    2.8604346   -3.5024067    0.0000000  0.00    0.0000984   -0.0016123   -0.0000000
 C    3.7872769    0.0000000    0.0000000  0.00   -0.0049297   -0.0000000   -0.0000000
 C    2.9877639   -1.1204373    0.0000000  0.00    0.0044471   -0.0029227   -0.0000000
 C    1.4133294   -5.8590937    0.0000000  0.00   -0.0008250   -0.0013049   -0.0000000
 C    0.7092727   -7.0854483    0.0000000  0.00    0.0013633    0.0000811   -0.0000000
 C    2.7519719   -8.3774876    0.0000000  0.00   -0.0006765    0.0012543   -0.0000000
 C    1.3974711   -8.3135254    0.0000000  0.00    0.0004555    0.0002969   -0.0000000
 C    1.4212504   -3.3440375    0.0000000  0.00   -0.0005977   -0.0002388   -0.0000000
 C    0.7110559   -4.5815021    0.0000000  0.00    0.0044445   -0.0020830   -0.0000000
 C    1.5845747   -0.7831359    0.0000000  0.00    0.0004846    0.0003729   -0.0000000
 C    0.7248786   -1.9991832    0.0000000  0.00    0.0023421   -0.0003614   -0.0000000
 H    8.8468070   -7.3712083    0.0000000  0.00    0.0010774   -0.0019582   -0.0000000
 H    7.5468396   -9.4824364    0.0000000  0.00   -0.0020048    0.0013741   -0.0000000
 H    5.1132914   -9.4339812    0.0000000  0.00   -0.0011841   -0.0013037   -0.0000000
 H    8.9142834   -4.9495578    0.0000000  0.00    0.0007232    0.0011634   -0.0000000
 H    9.0130364   -2.5235987    0.0000000  0.00    0.0005349    0.0021238   -0.0000000
 H    9.0592357    0.0000000    0.0000000  0.00    0.0016711   -0.0000000   -0.0000000
 H    3.2163013   -9.3615052    0.0000000  0.00   -0.0016129   -0.0001189   -0.0000000
 H    0.8670503   -9.2643946    0.0000000  0.00    0.0000462    0.0018123   -0.0000000
 C   -7.1044360    6.1024170    0.0000000  0.00   -0.0005539    0.0030811   -0.0000000
 C   -5.6722460    6.0618776    0.0000000  0.00   -0.0011948   -0.0001836   -0.0000000
 C   -7.7615163    7.3518933    0.0000000  0.00   -0.0004862   -0.0005798   -0.0000000
 C   -4.9479475    7.2715776    0.0000000  0.00   -0.0016232    0.0025284   -0.0000000
 C   -7.0372661    8.5236594    0.0000000  0.00    0.0009144   -0.0003347   -0.0000000
 C   -5.6472592    8.4897692    0.0000000  0.00    0.0014118   -0.0001447   -0.0000000
 C   -7.1951282    3.6669496    0.0000000  0.00    0.0011060    0.0005440   -0.0000000
 C   -5.7511775    3.6334245    0.0000000  0.00   -0.0014577   -0.0006065   -0.0000000
 C   -7.8300399    4.9078073    0.0000000  0.00    0.0008621    0.0006521   -0.0000000
 C   -4.9930458    4.8122809    0.0000000  0.00    0.0012952   -0.0012678   -0.0000000
 C   -7.2957688    1.2287321    0.0000000  0.00    0.0008552   -0.0015677   -0.0000000
 C   -5.8562010    1.2209817    0.0000000  0.00   -0.0001832   -0.0022887   -0.0000000
 C   -7.9298379    2.4714229    0.0000000  0.00   -0.0008927   -0.0002302   -0.0000000
 C   -5.0827703    2.3969688    0.0000000  0.00    0.0006444   -0.0003921   -0.0000000
 C   -7.9749618    0.0000000    0.0000000  0.00    0.0014423   -0.0000000   -0.0000000
 C   -5.1781083    0.0000000    0.0000000  0.00   -0.0025345   -0.0000000   -0.0000000
 C   -3.5579655    4.7433701    0.0000000  0.00   -0.0006399    0.0007095   -0.0000000
 C   -2.8286874    5.9481922    0.0000000  0.00   -0.0014068    0.0000555   -0.0000000
 C   -3.5083233    7.2056311    0.0000000  0.00   -0.0003211   -0.0004602   -0.0000000
 C   -3.6451542    2.3448042    0.0000000  0.00   -0.0008346   -0.0062341   -0.0000000
 C   -2.8604346    3.5024067    0.0000000  0.00   -0.0000984    0.0016123   -0.0000000
 C   -3.7872769    0.0000000    0.0000000  0.00    0.0049297   -0.0000000   -0.0000000
 C   -2.9877639    1.1204373    0.0000000  0.00   -0.0044471    0.0029227   -0.0000000
 C   -1.4133294    5.8590937    0.0000000  0.00    0.0008250    0.0013049   -0.0000000
 C   -0.7092727    7.0854483    0.0000000  0.00   -0.0013633   -0.0000811   -0.0000000
 C   -2.7519719    8.3774876    0.0000000  0.00    0.0006765   -0.0012543   -0.0000000
 C   -1.3974711    8.3135254    0.0000000  0.00   -0.0004555   -0.0002969   -0.0000000
 C   -1.4212504    3.3440375    0.0000000  0.00    0.0005977    0.0002388   -0.0000000
 C   -0.7110559    4.5815021    0.0000000  0.00   -0.0044445    0.0020830   -0.0000000
 C   -1.5845747    0.7831359    0.0000000  0.00   -0.0004846   -0.0003729   -0.0000000
 C   -0.7248786    1.9991832    0.0000000  0.00   -0.0023421    0.0003614   -0.0000000
 H   -8.8468070    7.3712083    0.0000000  0.00   -0.0010774    0.0019582   -0.0000000
 H   -7.5468396    9.4824364    0.0000000  0.00    0.0020048   -0.0013741   -0.0000000
 H   -5.1132914    9.4339812    0.0000000  0.00    0.0011841    0.0013037   -0.0000000
 H   -8.9142834    4.9495578    0.0000000  0.00   -0.0007232   -0.0011634   -0.0000000
 H   -9.0130364    2.5235987    0.0000000  0.00   -0.0005349   -0.0021238   -0.0000000
 H   -9.0592357    0.0000000    0.0000000  0.00   -0.0016711   -0.0000000   -0.0000000
 H   -3.2163013    9.3615052    0.0000000  0.00    0.0016129    0.0001189   -0.0000000
 H   -0.8670503    9.2643946    0.0000000  0.00   -0.0000462   -0.0018123   -0.0000000
 C    7.1044360    6.1024170    0.0000000  0.00    0.0005539    0.0030811   -0.0000000
 C    5.6722460    6.0618776    0.0000000  0.00    0.0011948   -0.0001836   -0.0000000
 C    7.7615163    7.3518933    0.0000000  0.00    0.0004862   -0.0005798   -0.0000000
 C    4.9479475    7.2715776    0.0000000  0.00    0.0016232    0.0025284   -0.0000000
 C    7.0372661    8.5236594    0.0000000  0.00   -0.0009144   -0.0003347   -0.0000000
 C    5.6472592    8.4897692    0.0000000  0.00   -0.0014118   -0.0001447   -0.0000000
 C    7.1951282    3.6669496    0.0000000  0.00   -0.0011060    0.0005440   -0.0000000
 C    5.7511775    3.6334245    0.0000000  0.00    0.0014577   -0.0006065   -0.0000000
 C    7.8300399    4.9078073    0.0000000  0.00   -0.0008621    0.0006521   -0.0000000
 C    4.9930458    4.8122809    0.0000000  0.00   -0.0012952   -0.0012678   -0.0000000
 C    7.2957688    1.2287321    0.0000000  0.00   -0.0008552   -0.0015677   -0.0000000
 C    5.8562010    1.2209817    0.0000000  0.00    0.0001832   -0.0022887   -0.0000000
 C    7.9298379    2.4714229    0.0000000  0.00    0.0008927   -0.0002302   -0.0000000
 C    5.0827703    2.3969688    0.0000000  0.00   -0.0006444   -0.0003921   -0.0000000
 C    3.5579655    4.7433701    0.0000000  0.00    0.0006399    0.0007095   -0.0000000
 C    2.8286874    5.9481922    0.0000000  0.00    0.0014068    0.0000555   -0.0000000
 C    3.5083233    7.2056311    0.0000000  0.00    0.0003211   -0.0004602   -0.0000000
 C    3.6451542    2.3448042    0.0000000  0.00    0.0008346   -0.0062341   -0.0000000
 C    2.8604346    3.5024067    0.0000000  0.00    0.0000984    0.0016123   -0.0000000
 C    2.9877639    1.1204373    0.0000000  0.00    0.0044471    0.0029227   -0.0000000
 C    1.4133294    5.8590937    0.0000000  0.00   -0.0008250    0.0013049   -0.0000000
 C    0.7092727    7.0854483    0.0000000  0.00    0.0013633   -0.0000811   -0.0000000
 C    2.7519719    8.3774876    0.0000000  0.00   -0.0006765   -0.0012543   -0.0000000
 C    1.3974711    8.3135254    0.0000000  0.00    0.0004555   -0.0002969   -0.0000000
 C    1.4212504    3.3440375    0.0000000  0.00   -0.0005977    0.0002388   -0.0000000
 C    0.7110559    4.5815021    0.0000000  0.00    0.0044445    0.0020830   -0.0000000
 C    1.5845747    0.7831359    0.0000000  0.00    0.0004846   -0.0003729   -0.0000000
 C    0.7248786    1.9991832    0.0000000  0.00    0.0023421    0.0003614   -0.0000000
 H    8.8468070    7.3712083    0.0000000  0.00    0.0010774    0.0019582   -0.0000000
 H    7.5468396    9.4824364    0.0000000  0.00   -0.0020048   -0.0013741   -0.0000000
 H    5.1132914    9.4339812    0.0000000  0.00   -0.0011841    0.0013037   -0.0000000
 H    8.9142834    4.9495578    0.0000000  0.00    0.0007232   -0.0011634   -0.0000000
 H    9.0130364    2.5235987    0.0000000  0.00    0.0005349   -0.0021238   -0.0000000
 H    3.2163013    9.3615052    0.0000000  0.00   -0.0016129    0.0001189   -0.0000000
 H    0.8670503    9.2643946    0.0000000  0.00    0.0000462   -0.0018123   -0.0000000
 C   -7.1044360   -6.1024170    0.0000000  0.00   -0.0005539   -0.0030811   -0.0000000
 C   -5.6722460   -6.0618776    0.0000000  0.00   -0.0011948    0.0001836   -0.0000000
 C   -7.7615163   -7.3518933    0.0000000  0.00   -0.0004862    0.0005798   -0.0000000
 C   -4.9479475   -7.2715776    0.0000000  0.00   -0.0016232   -0.0025284   -0.0000000
 C   -7.0372661   -8.5236594    0.0000000  0.00    0.0009144    0.0003347   -0.0000000
 C   -5.6472592   -8.4897692    0.0000000  0.00    0.0014118    0.0001447   -0.0000000
 C   -7.1951282   -3.6669496    0.0000000  0.00    0.0011060   -0.0005440   -0.0000000
 C   -5.7511775   -3.6334245    0.0000000  0.00   -0.0014577    0.0006065   -0.0000000
 C   -7.8300399   -4.9078073    0.0000000  0.00    0.0008621   -0.0006521   -0.0000000
 C   -4.9930458   -4.8122809    0.0000000  0.00    0.0012952    0.0012678   -0.0000000
 C   -7.2957688   -1.2287321    0.0000000  0.00    0.0008552    0.0015677   -0.0000000
 C   -5.8562010   -1.2209817    0.0000000  0.00   -0.0001832    0.0022887   -0.0000000
 C   -7.9298379   -2.4714229    0.0000000  0.00   -0.0008927    0.0002302   -0.0000000
 C   -5.0827703   -2.3969688    0.0000000  0.00    0.0006444    0.0003921   -0.0000000
 C   -3.5579655   -4.7433701    0.0000000  0.00   -0.0006399   -0.0007095   -0.0000000
 C   -2.8286874   -5.9481922    0.0000000  0.00   -0.0014068   -0.0000555   -0.0000000
 C   -3.5083233   -7.2056311    0.0000000  0.00   -0.0003211    0.0004602   -0.0000000
 C   -3.6451542   -2.3448042    0.0000000  0.00   -0.0008346    0.0062341   -0.0000000
 C   -2.8604346   -3.5024067    0.0000000  0.00   -0.0000984   -0.0016123   -0.0000000
 C   -2.9877639   -1.1204373    0.0000000  0.00   -0.0044471   -0.0029227   -0.0000000
 C   -1.4133294   -5.8590937    0.0000000  0.00    0.0008250   -0.0013049   -0.0000000
 C   -0.7092727   -7.0854483    0.0000000  0.00   -0.0013633    0.0000811   -0.0000000
 C   -2.7519719   -8.3774876    0.0000000  0.00    0.0006765    0.0012543   -0.0000000
 C   -1.3974711   -8.3135254    0.0000000  0.00   -0.0004555    0.0002969   -0.0000000
 C   -1.4212504   -3.3440375    0.0000000  0.00    0.0005977   -0.0002388   -0.0000000
 C   -0.7110559   -4.5815021    0.0000000  0.00   -0.0044445   -0.0020830   -0.0000000
 C   -1.5845747   -0.7831359    0.0000000  0.00   -0.0004846    0.0003729   -0.0000000
 C   -0.7248786   -1.9991832    0.0000000  0.00   -0.0023421   -0.0003614   -0.0000000
 H   -8.8468070   -7.3712083    0.0000000  0.00   -0.0010774   -0.0019582   -0.0000000
 H   -7.5468396   -9.4824364    0.0000000  0.00    0.0020048    0.0013741   -0.0000000
 H   -5.1132914   -9.4339812    0.0000000  0.00    0.0011841   -0.0013037   -0.0000000
 H   -8.9142834   -4.9495578    0.0000000  0.00   -0.0007232    0.0011634   -0.0000000
 H   -9.0130364   -2.5235987    0.0000000  0.00   -0.0005349    0.0021238   -0.0000000
 H   -3.2163013   -9.3615052    0.0000000  0.00    0.0016129   -0.0001189   -0.0000000
 H   -0.8670503   -9.2643946    0.0000000  0.00   -0.0000462    0.0018123   -0.0000000
