148
 Energy =   -4513.0589593870
 C    7.1031141   -6.0875652    0.0000000  0.00    0.0006380    0.0002489   -0.0000000
 C    5.6724105   -6.0494131    0.0000000  0.00    0.0004913   -0.0035522   -0.0000000
 C    7.7753775   -7.3296526    0.0000000  0.00    0.0016325    0.0001185   -0.0000000
 C    4.9553646   -7.2607687    0.0000000  0.00   -0.0006668    0.0019851   -0.0000000
 C    7.0585902   -8.5004146    0.0000000  0.00    0.0026942    0.0002117   -0.0000000
 C    5.6684071   -8.4694747    0.0000000  0.00   -0.0008918   -0.0009282   -0.0000000
 C    7.1825713   -3.6616593    0.0000000  0.00   -0.0015028   -0.0004009   -0.0000000
 C    5.7442302   -3.6265204    0.0000000  0.00    0.0004542   -0.0031334   -0.0000000
 C    7.8286103   -4.8955217    0.0000000  0.00    0.0008996   -0.0000180   -0.0000000
 C    4.9871310   -4.8047442    0.0000000  0.00    0.0004921    0.0002557   -0.0000000
 C    7.2861312   -1.2297060    0.0000000  0.00    0.0002941   -0.0001133   -0.0000000
 C    5.8474562   -1.2206813    0.0000000  0.00   -0.0001912    0.0010113   -0.0000000
 C    7.9262888   -2.4675758    0.0000000  0.00    0.0010100    0.0002366   -0.0000000
 C    5.0754756   -2.3930287    0.0000000  0.00    0.0021143   -0.0010232   -0.0000000
 C    7.9749817    0.0000000    0.0000000  0.00   -0.0001037   -0.0000000   -0.0000000
 C    5.1668681    0.0000000    0.0000000  0.00    0.0058698   -0.0000000   -0.0000000
 C    3.5549721   -4.7413115    0.0000000  0.00   -0.0007462   -0.0017340   -0.0000000
 C    2.8296683   -5.9482248    0.0000000  0.00   -0.0004351    0.0003595   -0.0000000
 C    3.5130278   -7.1988424    0.0000000  0.00   -0.0006868    0.0001877   -0.0000000
 C    3.6386342   -2.3459110    0.0000000  0.00   -0.0009562    0.0023744   -0.0000000
 C    2.8572965   -3.4984279    0.0000000  0.00    0.0035576    0.0011933   -0.0000000
 C    3.7792943    0.0000000    0.0000000  0.00   -0.0072386   -0.0000000   -0.0000000
 C    2.9783302   -1.1224254    0.0000000  0.00    0.0037613   -0.0026353   -0.0000000
 C    1.4117273   -5.8597710    0.0000000  0.00   -0.0014988   -0.0021267   -0.0000000
 C    0.7110901   -7.0829834    0.0000000  0.00    0.0011160   -0.0030114   -0.0000000
 C    2.7623669   -8.3756370    0.0000000  0.00    0.0000838    0.0016106   -0.0000000
 C    1.4062011   -8.3082072    0.0000000  0.00    0.0015121   -0.0000560   -0.0000000
 C    1.4184584   -3.3363701    0.0000000  0.00   -0.0004022   -0.0018690   -0.0000000
 C    0.7080334   -4.5822100    0.0000000  0.00    0.0022962   -0.0021825   -0.0000000
 C    1.5806715   -0.7975749    0.0000000  0.00   -0.0014660    0.0023152   -0.0000000
 C    0.7332333   -2.0002835    0.0000000  0.00   -0.0008523   -0.0004673   -0.0000000
 H    8.8690132   -7.3325183    0.0000000  0.00    0.0038327    0.0015208   -0.0000000
 H    7.5692883   -9.4671463    0.0000000  0.00   -0.0011799   -0.0013521   -0.0000000
 H    5.1470199   -9.4312518    0.0000000  0.00    0.0015338   -0.0000740   -0.0000000
 H    8.9216643   -4.9350664    0.0000000  0.00   -0.0005970    0.0005823   -0.0000000
 H    9.0127102   -2.5298951    0.0000000  0.00    0.0001763    0.0004835   -0.0000000
 H    9.0590801    0.0000000    0.0000000  0.00   -0.0015117   -0.0000000   -0.0000000
 H    3.2403852   -9.3507569    0.0000000  0.00   -0.0000692    0.0010768   -0.0000000
 H    0.8700841   -9.2423469    0.0000000  0.00    0.0001561    0.0016688   -0.0000000
 C   -7.1031141    6.0875652    0.0000000  0.00   -0.0006380   -0.0002489   -0.0000000
 C   -5.6724105    6.0494131    0.0000000  0.00   -0.0004913    0.0035522   -0.0000000
 C   -7.7753775    7.3296526    0.0000000  0.00   -0.0016325   -0.0001185   -0.0000000
 C   -4.9553646    7.2607687    0.0000000  0.00    0.0006668   -0.0019851   -0.0000000
 C   -7.0585902    8.5004146    0.0000000  0.00   -0.0026942   -0.0002117   -0.0000000
 C   -5.6684071    8.4694747    0.0000000  0.00    0.0008918    0.0009282   -0.0000000
 C   -7.1825713    3.6616593    0.0000000  0.00    0.0015028    0.0004009   -0.0000000
 C   -5.7442302    3.6265204    0.0000000  0.00   -0.0004542    0.0031334   -0.0000000
 C   -7.8286103    4.8955217    0.0000000  0.00   -0.0008996    0.0000180   -0.0000000
 C   -4.9871310    4.8047442    0.0000000  0.00   -0.0004921   -0.0002557   -0.0000000
 C   -7.2861312    1.2297060    0.0000000  0.00   -0.0002941    0.0001133   -0.0000000
 C   -5.8474562    1.2206813    0.0000000  0.00    0.0001912   -0.0010113   -0.0000000
 C   -7.9262888    2.4675758    0.0000000  0.00   -0.0010100   -0.0002366   -0.0000000
 C   -5.0754756    2.3930287    0.0000000  0.00   -0.0021143    0.0010232   -0.0000000
 C   -7.9749817    0.0000000    0.0000000  0.00    0.0001037   -0.0000000   -0.0000000
 C   -5.1668681    0.0000000    0.0000000  0.00   -0.0058698   -0.0000000   -0.0000000
 C   -3.5549721    4.7413115    0.0000000  0.00    0.0007462    0.0017340   -0.0000000
 C   -2.8296683    5.9482248    0.0000000  0.00    0.0004351   -0.0003595   -0.0000000
 C   -3.5130278    7.1988424    0.0000000  0.00    0.0006868   -0.0001877   -0.0000000
 C   -3.6386342    2.3459110    0.0000000  0.00    0.0009562   -0.0023744   -0.0000000
 C   -2.8572965    3.4984279    0.0000000  0.00   -0.0035576   -0.0011933   -0.0000000
 C   -3.7792943    0.0000000    0.0000000  0.00    0.0072386   -0.0000000   -0.0000000
 C   -2.9783302    1.1224254    0.0000000  0.00   -0.0037613    0.0026353   -0.0000000
 C   -1.4117273    5.8597710    0.0000000  0.00    0.0014988    0.0021267   -0.0000000
 C   -0.7110901    7.0829834    0.0000000  0.00   -0.0011160    0.0030114   -0.0000000
 C   -2.7623669    8.3756370    0.0000000  0.00   -0.0000838   -0.0016106   -0.0000000
 C   -1.4062011    8.3082072    0.0000000  0.00   -0.0015121    0.0000560   -0.0000000
 C   -1.4184584    3.3363701    0.0000000  0.00    0.0004022    0.0018690   -0.0000000
 C   -0.7080334    4.5822100    0.0000000  0.00   -0.0022962    0.0021825   -0.0000000
 C   -1.5806715    0.7975749    0.0000000  0.00    0.0014660   -0.0023152   -0.0000000
 C   -0.7332333    2.0002835    0.0000000  0.00    0.0008523    0.0004673   -0.0000000
 H   -8.8690132    7.3325183    0.0000000  0.00   -0.0038327   -0.0015208   -0.0000000
 H   -7.5692883    9.4671463    0.0000000  0.00    0.0011799    0.0013521   -0.0000000
 H   -5.1470199    9.4312518    0.0000000  0.00   -0.0015338    0.0000740   -0.0000000
 H   -8.9216643    4.9350664    0.0000000  0.00    0.0005970   -0.0005823   -0.0000000
 H   -9.0127102    2.5298951    0.0000000  0.00   -0.0001763   -0.0004835   -0.0000000
 H   -9.0590801    0.0000000    0.0000000  0.00    0.0015117   -0.0000000   -0.0000000
 H   -3.2403852    9.3507569    0.0000000  0.00    0.0000692   -0.0010768   -0.0000000
 H   -0.8700841    9.2423469    0.0000000  0.00   -0.0001561   -0.0016688   -0.0000000
 C    7.1031141    6.0875652    0.0000000  0.00    0.0006380   -0.0002489   -0.0000000
 C    5.6724105    6.0494131    0.0000000  0.00    0.0004913    0.0035522   -0.0000000
 C    7.7753775    7.3296526    0.0000000  0.00    0.0016325   -0.0001185   -0.0000000
 C    4.9553646    7.2607687    0.0000000  0.00   -0.0006668   -0.0019851   -0.0000000
 C    7.0585902    8.5004146    0.0000000  0.00    0.0026942   -0.0002117   -0.0000000
 C    5.6684071    8.4694747    0.0000000  0.00   -0.0008918    0.0009282   -0.0000000
 C    7.1825713    3.6616593    0.0000000  0.00   -0.0015028    0.0004009   -0.0000000
 C    5.7442302    3.6265204    0.0000000  0.00    0.0004542    0.0031334   -0.0000000
 C    7.8286103    4.8955217    0.0000000  0.00    0.0008996    0.0000180   -0.0000000
 C    4.9871310    4.8047442    0.0000000  0.00    0.0004921   -0.0002557   -0.0000000
 C    7.2861312    1.2297060    0.0000000  0.00    0.0002941    0.0001133   -0.0000000
 C    5.8474562    1.2206813    0.0000000  0.00   -0.0001912   -0.0010113   -0.0000000
 C    7.9262888    2.4675758    0.0000000  0.00    0.0010100   -0.0002366   -0.0000000
 C    5.0754756    2.3930287    0.0000000  0.00    0.0021143    0.0010232   -0.0000000
 C    3.5549721    4.7413115    0.0000000  0.00   -0.0007462    0.0017340   -0.0000000
 C    2.8296683    5.9482248    0.0000000  0.00   -0.0004351   -0.0003595   -0.0000000
 C    3.5130278    7.1988424    0.0000000  0.00   -0.0006868   -0.0001877   -0.0000000
 C    3.6386342    2.3459110    0.0000000  0.00   -0.0009562   -0.0023744   -0.0000000
 C    2.8572965    3.4984279    0.0000000  0.00    0.0035576   -0.0011933   -0.0000000
 C    2.9783302    1.1224254    0.0000000  0.00    0.0037613    0.0026353   -0.0000000
 C    1.4117273    5.8597710    0.0000000  0.00   -0.0014988    0.0021267   -0.0000000
 C    0.7110901    7.0829834    0.0000000  0.00    0.0011160    0.0030114   -0.0000000
 C    2.7623669    8.3756370    0.0000000  0.00    0.0000838   -0.0016106   -0.0000000
 C    1.4062011    8.3082072    0.0000000  0.00    0.0015121    0.0000560   -0.0000000
 C    1.4184584    3.3363701    0.0000000  0.00   -0.0004022    0.0018690   -0.0000000
 C    0.7080334    4.5822100    0.0000000  0.00    0.0022962    0.0021825   -0.0000000
 C    1.5806715    0.7975749    0.0000000  0.00   -0.0014660   -0.0023152   -0.0000000
 C    0.7332333    2.0002835    0.0000000  0.00   -0.0008523    0.0004673   -0.0000000
 H    8.8690132    7.3325183    0.0000000  0.00    0.0038327   -0.0015208   -0.0000000
 H    7.5692883    9.4671463    0.0000000  0.00   -0.0011799    0.0013521   -0.0000000
 H    5.1470199    9.4312518    0.0000000  0.00    0.0015338    0.0000740   -0.0000000
 H    8.9216643    4.9350664    0.0000000  0.00   -0.0005970   -0.0005823   -0.0000000
 H    9.0127102    2.5298951    0.0000000  0.00    0.0001763   -0.0004835   -0.0000000
 H    3.2403852    9.3507569    0.0000000  0.00   -0.0000692   -0.0010768   -0.0000000
 H    0.8700841    9.2423469    0.0000000  0.00    0.0001561   -0.0016688   -0.0000000
 C   -7.1031141   -6.0875652    0.0000000  0.00   -0.0006380    0.0002489   -0.0000000
 C   -5.6724105   -6.0494131    0.0000000  0.00   -0.0004913   -0.0035522   -0.0000000
 C   -7.7753775   -7.3296526    0.0000000  0.00   -0.0016325    0.0001185   -0.0000000
 C   -4.9553646   -7.2607687    0.0000000  0.00    0.0006668    0.0019851   -0.0000000
 C   -7.0585902   -8.5004146    0.0000000  0.00   -0.0026942    0.0002117   -0.0000000
 C   -5.6684071   -8.4694747    0.0000000  0.00    0.0008918   -0.0009282   -0.0000000
 C   -7.1825713   -3.6616593    0.0000000  0.00    0.0015028   -0.0004009   -0.0000000
 C   -5.7442302   -3.6265204    0.0000000  0.00   -0.0004542   -0.0031334   -0.0000000
 C   -7.8286103   -4.8955217    0.0000000  0.00   -0.0008996   -0.0000180   -0.0000000
 C   -4.9871310   -4.8047442    0.0000000  0.00   -0.0004921    0.0002557   -0.0000000
 C   -7.2861312   -1.2297060    0.0000000  0.00   -0.0002941   -0.0001133   -0.0000000
 C   -5.8474562   -1.2206813    0.0000000  0.00    0.0001912    0.0010113   -0.0000000
 C   -7.9262888   -2.4675758    0.0000000  0.00   -0.0010100    0.0002366   -0.0000000
 C   -5.0754756   -2.3930287    0.0000000  0.00   -0.0021143   -0.0010232   -0.0000000
 C   -3.5549721   -4.7413115    0.0000000  0.00    0.0007462   -0.0017340   -0.0000000
 C   -2.8296683   -5.9482248    0.0000000  0.00    0.0004351    0.0003595   -0.0000000
 C   -3.5130278   -7.1988424    0.0000000  0.00    0.0006868    0.0001877   -0.0000000
 C   -3.6386342   -2.3459110    0.0000000  0.00    0.0009562    0.0023744   -0.0000000
 C   -2.8572965   -3.4984279    0.0000000  0.00   -0.0035576    0.0011933   -0.0000000
 C   -2.9783302   -1.1224254    0.0000000  0.00   -0.0037613   -0.0026353   -0.0000000
 C   -1.4117273   -5.8597710    0.0000000  0.00    0.0014988   -0.0021267   -0.0000000
 C   -0.7110901   -7.0829834    0.0000000  0.00   -0.0011160   -0.0030114   -0.0000000
 C   -2.7623669   -8.3756370    0.0000000  0.00   -0.0000838    0.0016106   -0.0000000
 C   -1.4062011   -8.3082072    0.0000000  0.00   -0.0015121   -0.0000560   -0.0000000
 C   -1.4184584   -3.3363701    0.0000000  0.00    0.0004022   -0.0018690   -0.0000000
 C   -0.7080334   -4.5822100    0.0000000  0.00   -0.0022962   -0.0021825   -0.0000000
 C   -1.5806715   -0.7975749    0.0000000  0.00    0.0014660    0.0023152   -0.0000000
 C   -0.7332333   -2.0002835    0.0000000  0.00    0.0008523   -0.0004673   -0.0000000
 H   -8.8690132   -7.3325183    0.0000000  0.00   -0.0038327    0.0015208   -0.0000000
 H   -7.5692883   -9.4671463    0.0000000  0.00    0.0011799   -0.0013521   -0.0000000
 H   -5.1470199   -9.4312518    0.0000000  0.00   -0.0015338   -0.0000740   -0.0000000
 H   -8.9216643   -4.9350664    0.0000000  0.00    0.0005970    0.0005823   -0.0000000
 H   -9.0127102   -2.5298951    0.0000000  0.00   -0.0001763    0.0004835   -0.0000000
 H   -3.2403852   -9.3507569    0.0000000  0.00    0.0000692    0.0010768   -0.0000000
 H   -0.8700841   -9.2423469    0.0000000  0.00   -0.0001561    0.0016688   -0.0000000
