148
 Energy =   -4513.2497201300
 C    7.1091300   -6.0945374    0.0000000  0.00   -0.0013707   -0.0025845   -0.0000000
 C    5.6775909   -6.0514903    0.0000000  0.00   -0.0005528    0.0005375   -0.0000000
 C    7.7731360   -7.3413747    0.0000000  0.00   -0.0012990   -0.0008150   -0.0000000
 C    4.9541426   -7.2622558    0.0000000  0.00   -0.0022960   -0.0011381   -0.0000000
 C    7.0507737   -8.5094986    0.0000000  0.00   -0.0006136   -0.0009812   -0.0000000
 C    5.6569618   -8.4727442    0.0000000  0.00    0.0004789    0.0022347   -0.0000000
 C    7.1934499   -3.6656812    0.0000000  0.00   -0.0000544    0.0019892   -0.0000000
 C    5.7528079   -3.6277827    0.0000000  0.00   -0.0001921    0.0001507   -0.0000000
 C    7.8344484   -4.8993936    0.0000000  0.00   -0.0012002    0.0021977   -0.0000000
 C    4.9946215   -4.8045244    0.0000000  0.00    0.0002331   -0.0001870   -0.0000000
 C    7.2959505   -1.2309013    0.0000000  0.00   -0.0020708    0.0010272   -0.0000000
 C    5.8566325   -1.2209701    0.0000000  0.00   -0.0000483    0.0018048   -0.0000000
 C    7.9355155   -2.4659263    0.0000000  0.00   -0.0017317    0.0023719   -0.0000000
 C    5.0834847   -2.3908682    0.0000000  0.00   -0.0008959   -0.0009292   -0.0000000
 C    7.9842878    0.0000000    0.0000000  0.00   -0.0008007   -0.0000000   -0.0000000
 C    5.1767153    0.0000000    0.0000000  0.00    0.0012301   -0.0000000   -0.0000000
 C    3.5558936   -4.7351666    0.0000000  0.00    0.0001912   -0.0005905   -0.0000000
 C    2.8306258   -5.9458961    0.0000000  0.00   -0.0015629   -0.0014826   -0.0000000
 C    3.5094156   -7.1955194    0.0000000  0.00   -0.0024983   -0.0003519   -0.0000000
 C    3.6433400   -2.3396820    0.0000000  0.00   -0.0004239    0.0012861   -0.0000000
 C    2.8608239   -3.4965838    0.0000000  0.00    0.0004541   -0.0002201   -0.0000000
 C    3.7916254    0.0000000    0.0000000  0.00   -0.0010992   -0.0000000   -0.0000000
 C    2.9852978   -1.1178191    0.0000000  0.00    0.0002682   -0.0008145   -0.0000000
 C    1.4123406   -5.8569293    0.0000000  0.00   -0.0007778    0.0007422   -0.0000000
 C    0.7104135   -7.0799673    0.0000000  0.00   -0.0014815    0.0009124   -0.0000000
 C    2.7559258   -8.3720678    0.0000000  0.00   -0.0014011    0.0007749   -0.0000000
 C    1.4020098   -8.3087935    0.0000000  0.00   -0.0000465    0.0014773   -0.0000000
 C    1.4155904   -3.3276467    0.0000000  0.00    0.0005696    0.0011096   -0.0000000
 C    0.7068788   -4.5796788    0.0000000  0.00   -0.0022275   -0.0002558   -0.0000000
 C    1.5816856   -0.7696687    0.0000000  0.00    0.0000875    0.0002767   -0.0000000
 C    0.7256652   -2.0018007    0.0000000  0.00   -0.0001036    0.0008845   -0.0000000
 H    8.8603029   -7.3555265    0.0000000  0.00    0.0001686   -0.0035910   -0.0000000
 H    7.5577965   -9.4710451    0.0000000  0.00   -0.0003751   -0.0028983   -0.0000000
 H    5.1263799   -9.4209259    0.0000000  0.00    0.0012881    0.0007155   -0.0000000
 H    8.9201176   -4.9393474    0.0000000  0.00   -0.0020434   -0.0006203   -0.0000000
 H    9.0192303   -2.5192944    0.0000000  0.00   -0.0028292    0.0013005   -0.0000000
 H    9.0687556    0.0000000    0.0000000  0.00   -0.0026713   -0.0000000   -0.0000000
 H    3.2268412   -9.3512070    0.0000000  0.00   -0.0014300    0.0004532   -0.0000000
 H    0.8682471   -9.2523976    0.0000000  0.00    0.0020782    0.0005436   -0.0000000
 C   -7.1091300    6.0945374    0.0000000  0.00    0.0013707    0.0025845   -0.0000000
 C   -5.6775909    6.0514903    0.0000000  0.00    0.0005528   -0.0005375   -0.0000000
 C   -7.7731360    7.3413747    0.0000000  0.00    0.0012990    0.0008150   -0.0000000
 C   -4.9541426    7.2622558    0.0000000  0.00    0.0022960    0.0011381   -0.0000000
 C   -7.0507737    8.5094986    0.0000000  0.00    0.0006136    0.0009812   -0.0000000
 C   -5.6569618    8.4727442    0.0000000  0.00   -0.0004789   -0.0022347   -0.0000000
 C   -7.1934499    3.6656812    0.0000000  0.00    0.0000544   -0.0019892   -0.0000000
 C   -5.7528079    3.6277827    0.0000000  0.00    0.0001921   -0.0001507   -0.0000000
 C   -7.8344484    4.8993936    0.0000000  0.00    0.0012002   -0.0021977   -0.0000000
 C   -4.9946215    4.8045244    0.0000000  0.00   -0.0002331    0.0001870   -0.0000000
 C   -7.2959505    1.2309013    0.0000000  0.00    0.0020708   -0.0010272   -0.0000000
 C   -5.8566325    1.2209701    0.0000000  0.00    0.0000483   -0.0018048   -0.0000000
 C   -7.9355155    2.4659263    0.0000000  0.00    0.0017317   -0.0023719   -0.0000000
 C   -5.0834847    2.3908682    0.0000000  0.00    0.0008959    0.0009292   -0.0000000
 C   -7.9842878    0.0000000    0.0000000  0.00    0.0008007   -0.0000000   -0.0000000
 C   -5.1767153    0.0000000    0.0000000  0.00   -0.0012301   -0.0000000   -0.0000000
 C   -3.5558936    4.7351666    0.0000000  0.00   -0.0001912    0.0005905   -0.0000000
 C   -2.8306258    5.9458961    0.0000000  0.00    0.0015629    0.0014826   -0.0000000
 C   -3.5094156    7.1955194    0.0000000  0.00    0.0024983    0.0003519   -0.0000000
 C   -3.6433400    2.3396820    0.0000000  0.00    0.0004239   -0.0012861   -0.0000000
 C   -2.8608239    3.4965838    0.0000000  0.00   -0.0004541    0.0002201   -0.0000000
 C   -3.7916254    0.0000000    0.0000000  0.00    0.0010992   -0.0000000   -0.0000000
 C   -2.9852978    1.1178191    0.0000000  0.00   -0.0002682    0.0008145   -0.0000000
 C   -1.4123406    5.8569293    0.0000000  0.00    0.0007778   -0.0007422   -0.0000000
 C   -0.7104135    7.0799673    0.0000000  0.00    0.0014815   -0.0009124   -0.0000000
 C   -2.7559258    8.3720678    0.0000000  0.00    0.0014011   -0.0007749   -0.0000000
 C   -1.4020098    8.3087935    0.0000000  0.00    0.0000465   -0.0014773   -0.0000000
 C   -1.4155904    3.3276467    0.0000000  0.00   -0.0005696   -0.0011096   -0.0000000
 C   -0.7068788    4.5796788    0.0000000  0.00    0.0022275    0.0002558   -0.0000000
 C   -1.5816856    0.7696687    0.0000000  0.00   -0.0000875   -0.0002767   -0.0000000
 C   -0.7256652    2.0018007    0.0000000  0.00    0.0001036   -0.0008845   -0.0000000
 H   -8.8603029    7.3555265    0.0000000  0.00   -0.0001686    0.0035910   -0.0000000
 H   -7.5577965    9.4710451    0.0000000  0.00    0.0003751    0.0028983   -0.0000000
 H   -5.1263799    9.4209259    0.0000000  0.00   -0.0012881   -0.0007155   -0.0000000
 H   -8.9201176    4.9393474    0.0000000  0.00    0.0020434    0.0006203   -0.0000000
 H   -9.0192303    2.5192944    0.0000000  0.00    0.0028292   -0.0013005   -0.0000000
 H   -9.0687556    0.0000000    0.0000000  0.00    0.0026713   -0.0000000   -0.0000000
 H   -3.2268412    9.3512070    0.0000000  0.00    0.0014300   -0.0004532   -0.0000000
 H   -0.8682471    9.2523976    0.0000000  0.00   -0.0020782   -0.0005436   -0.0000000
 C    7.1091300    6.0945374    0.0000000  0.00   -0.0013707    0.0025845   -0.0000000
 C    5.6775909    6.0514903    0.0000000  0.00   -0.0005528   -0.0005375   -0.0000000
 C    7.7731360    7.3413747    0.0000000  0.00   -0.0012990    0.0008150   -0.0000000
 C    4.9541426    7.2622558    0.0000000  0.00   -0.0022960    0.0011381   -0.0000000
 C    7.0507737    8.5094986    0.0000000  0.00   -0.0006136    0.0009812   -0.0000000
 C    5.6569618    8.4727442    0.0000000  0.00    0.0004789   -0.0022347   -0.0000000
 C    7.1934499    3.6656812    0.0000000  0.00   -0.0000544   -0.0019892   -0.0000000
 C    5.7528079    3.6277827    0.0000000  0.00   -0.0001921   -0.0001507   -0.0000000
 C    7.8344484    4.8993936    0.0000000  0.00   -0.0012002   -0.0021977   -0.0000000
 C    4.9946215    4.8045244    0.0000000  0.00    0.0002331    0.0001870   -0.0000000
 C    7.2959505    1.2309013    0.0000000  0.00   -0.0020708   -0.0010272   -0.0000000
 C    5.8566325    1.2209701    0.0000000  0.00   -0.0000483   -0.0018048   -0.0000000
 C    7.9355155    2.4659263    0.0000000  0.00   -0.0017317   -0.0023719   -0.0000000
 C    5.0834847    2.3908682    0.0000000  0.00   -0.0008959    0.0009292   -0.0000000
 C    3.5558936    4.7351666    0.0000000  0.00    0.0001912    0.0005905   -0.0000000
 C    2.8306258    5.9458961    0.0000000  0.00   -0.0015629    0.0014826   -0.0000000
 C    3.5094156    7.1955194    0.0000000  0.00   -0.0024983    0.0003519   -0.0000000
 C    3.6433400    2.3396820    0.0000000  0.00   -0.0004239   -0.0012861   -0.0000000
 C    2.8608239    3.4965838    0.0000000  0.00    0.0004541    0.0002201   -0.0000000
 C    2.9852978    1.1178191    0.0000000  0.00    0.0002682    0.0008145   -0.0000000
 C    1.4123406    5.8569293    0.0000000  0.00   -0.0007778   -0.0007422   -0.0000000
 C    0.7104135    7.0799673    0.0000000  0.00   -0.0014815   -0.0009124   -0.0000000
 C    2.7559258    8.3720678    0.0000000  0.00   -0.0014011   -0.0007749   -0.0000000
 C    1.4020098    8.3087935    0.0000000  0.00   -0.0000465   -0.0014773   -0.0000000
 C    1.4155904    3.3276467    0.0000000  0.00    0.0005696   -0.0011096   -0.0000000
 C    0.7068788    4.5796788    0.0000000  0.00   -0.0022275    0.0002558   -0.0000000
 C    1.5816856    0.7696687    0.0000000  0.00    0.0000875   -0.0002767   -0.0000000
 C    0.7256652    2.0018007    0.0000000  0.00   -0.0001036   -0.0008845   -0.0000000
 H    8.8603029    7.3555265    0.0000000  0.00    0.0001686    0.0035910   -0.0000000
 H    7.5577965    9.4710451    0.0000000  0.00   -0.0003751    0.0028983   -0.0000000
 H    5.1263799    9.4209259    0.0000000  0.00    0.0012881   -0.0007155   -0.0000000
 H    8.9201176    4.9393474    0.0000000  0.00   -0.0020434    0.0006203   -0.0000000
 H    9.0192303    2.5192944    0.0000000  0.00   -0.0028292   -0.0013005   -0.0000000
 H    3.2268412    9.3512070    0.0000000  0.00   -0.0014300   -0.0004532   -0.0000000
 H    0.8682471    9.2523976    0.0000000  0.00    0.0020782   -0.0005436   -0.0000000
 C   -7.1091300   -6.0945374    0.0000000  0.00    0.0013707   -0.0025845   -0.0000000
 C   -5.6775909   -6.0514903    0.0000000  0.00    0.0005528    0.0005375   -0.0000000
 C   -7.7731360   -7.3413747    0.0000000  0.00    0.0012990   -0.0008150   -0.0000000
 C   -4.9541426   -7.2622558    0.0000000  0.00    0.0022960   -0.0011381   -0.0000000
 C   -7.0507737   -8.5094986    0.0000000  0.00    0.0006136   -0.0009812   -0.0000000
 C   -5.6569618   -8.4727442    0.0000000  0.00   -0.0004789    0.0022347   -0.0000000
 C   -7.1934499   -3.6656812    0.0000000  0.00    0.0000544    0.0019892   -0.0000000
 C   -5.7528079   -3.6277827    0.0000000  0.00    0.0001921    0.0001507   -0.0000000
 C   -7.8344484   -4.8993936    0.0000000  0.00    0.0012002    0.0021977   -0.0000000
 C   -4.9946215   -4.8045244    0.0000000  0.00   -0.0002331   -0.0001870   -0.0000000
 C   -7.2959505   -1.2309013    0.0000000  0.00    0.0020708    0.0010272   -0.0000000
 C   -5.8566325   -1.2209701    0.0000000  0.00    0.0000483    0.0018048   -0.0000000
 C   -7.9355155   -2.4659263    0.0000000  0.00    0.0017317    0.0023719   -0.0000000
 C   -5.0834847   -2.3908682    0.0000000  0.00    0.0008959   -0.0009292   -0.0000000
 C   -3.5558936   -4.7351666    0.0000000  0.00   -0.0001912   -0.0005905   -0.0000000
 C   -2.8306258   -5.9458961    0.0000000  0.00    0.0015629   -0.0014826   -0.0000000
 C   -3.5094156   -7.1955194    0.0000000  0.00    0.0024983   -0.0003519   -0.0000000
 C   -3.6433400   -2.3396820    0.0000000  0.00    0.0004239    0.0012861   -0.0000000
 C   -2.8608239   -3.4965838    0.0000000  0.00   -0.0004541   -0.0002201   -0.0000000
 C   -2.9852978   -1.1178191    0.0000000  0.00   -0.0002682   -0.0008145   -0.0000000
 C   -1.4123406   -5.8569293    0.0000000  0.00    0.0007778    0.0007422   -0.0000000
 C   -0.7104135   -7.0799673    0.0000000  0.00    0.0014815    0.0009124   -0.0000000
 C   -2.7559258   -8.3720678    0.0000000  0.00    0.0014011    0.0007749   -0.0000000
 C   -1.4020098   -8.3087935    0.0000000  0.00    0.0000465    0.0014773   -0.0000000
 C   -1.4155904   -3.3276467    0.0000000  0.00   -0.0005696    0.0011096   -0.0000000
 C   -0.7068788   -4.5796788    0.0000000  0.00    0.0022275   -0.0002558   -0.0000000
 C   -1.5816856   -0.7696687    0.0000000  0.00   -0.0000875    0.0002767   -0.0000000
 C   -0.7256652   -2.0018007    0.0000000  0.00    0.0001036    0.0008845   -0.0000000
 H   -8.8603029   -7.3555265    0.0000000  0.00   -0.0001686   -0.0035910   -0.0000000
 H   -7.5577965   -9.4710451    0.0000000  0.00    0.0003751   -0.0028983   -0.0000000
 H   -5.1263799   -9.4209259    0.0000000  0.00   -0.0012881    0.0007155   -0.0000000
 H   -8.9201176   -4.9393474    0.0000000  0.00    0.0020434   -0.0006203   -0.0000000
 H   -9.0192303   -2.5192944    0.0000000  0.00    0.0028292    0.0013005   -0.0000000
 H   -3.2268412   -9.3512070    0.0000000  0.00    0.0014300    0.0004532   -0.0000000
 H   -0.8682471   -9.2523976    0.0000000  0.00   -0.0020782    0.0005436   -0.0000000
