148
 Energy =   -4513.2295816950
 C    7.1227456   -6.0985956    0.0000000  0.00   -0.0015585    0.0005433   -0.0000000
 C    5.6883550   -6.0615884    0.0000000  0.00    0.0002196    0.0000866   -0.0000000
 C    7.7867789   -7.3462672    0.0000000  0.00    0.0013908   -0.0000393   -0.0000000
 C    4.9674563   -7.2725576    0.0000000  0.00   -0.0000965    0.0007804   -0.0000000
 C    7.0646616   -8.5143964    0.0000000  0.00    0.0007710    0.0002578   -0.0000000
 C    5.6729670   -8.4838608    0.0000000  0.00    0.0005795    0.0004015   -0.0000000
 C    7.2004293   -3.6652404    0.0000000  0.00   -0.0016524   -0.0000516   -0.0000000
 C    5.7566720   -3.6333821    0.0000000  0.00   -0.0004320    0.0002327   -0.0000000
 C    7.8442780   -4.9036557    0.0000000  0.00    0.0002154   -0.0012498   -0.0000000
 C    5.0026328   -4.8143784    0.0000000  0.00   -0.0023566    0.0002361   -0.0000000
 C    7.2836715   -1.2296120    0.0000000  0.00    0.0003829   -0.0003902   -0.0000000
 C    5.8453406   -1.2221416    0.0000000  0.00   -0.0024325    0.0003110   -0.0000000
 C    7.9294615   -2.4673386    0.0000000  0.00   -0.0000188   -0.0005367   -0.0000000
 C    5.0831989   -2.3999453    0.0000000  0.00   -0.0001483    0.0006205   -0.0000000
 C    7.9636979    0.0000000    0.0000000  0.00   -0.0001237   -0.0000000   -0.0000000
 C    5.1658085    0.0000000    0.0000000  0.00    0.0010393   -0.0000000   -0.0000000
 C    3.5674054   -4.7506249    0.0000000  0.00    0.0015980   -0.0004414   -0.0000000
 C    2.8389751   -5.9509005    0.0000000  0.00    0.0008037    0.0000162   -0.0000000
 C    3.5219108   -7.2051257    0.0000000  0.00    0.0009343    0.0002855   -0.0000000
 C    3.6463158   -2.3548428    0.0000000  0.00    0.0015878   -0.0006967   -0.0000000
 C    2.8681181   -3.5076314    0.0000000  0.00   -0.0009056    0.0006310   -0.0000000
 C    3.7744598    0.0000000    0.0000000  0.00    0.0002339   -0.0000000   -0.0000000
 C    2.9828518   -1.1314993    0.0000000  0.00   -0.0000689    0.0013684   -0.0000000
 C    1.4174253   -5.8620424    0.0000000  0.00   -0.0012805    0.0002382   -0.0000000
 C    0.7140512   -7.0862708    0.0000000  0.00    0.0006642    0.0005790   -0.0000000
 C    2.7676207   -8.3723950    0.0000000  0.00   -0.0004690    0.0004652   -0.0000000
 C    1.4063820   -8.3048691    0.0000000  0.00    0.0008197   -0.0004311   -0.0000000
 C    1.4287345   -3.3532938    0.0000000  0.00    0.0010716    0.0005824   -0.0000000
 C    0.7155114   -4.5866162    0.0000000  0.00    0.0006644   -0.0004025   -0.0000000
 C    1.5834284   -0.8332374    0.0000000  0.00    0.0006304   -0.0002185   -0.0000000
 C    0.7459471   -2.0010874    0.0000000  0.00    0.0003042   -0.0000234   -0.0000000
 H    8.8762140   -7.3614840    0.0000000  0.00   -0.0002544    0.0013385   -0.0000000
 H    7.5745626   -9.4779822    0.0000000  0.00   -0.0001492    0.0000217   -0.0000000
 H    5.1487817   -9.4377061    0.0000000  0.00    0.0009795    0.0017079   -0.0000000
 H    8.9307286   -4.9424567    0.0000000  0.00   -0.0011246   -0.0003296   -0.0000000
 H    9.0135609   -2.5122495    0.0000000  0.00   -0.0000564    0.0004795   -0.0000000
 H    9.0483023    0.0000000    0.0000000  0.00   -0.0000928   -0.0000000   -0.0000000
 H    3.2415817   -9.3467966    0.0000000  0.00    0.0003663    0.0000348   -0.0000000
 H    0.8706360   -9.2390695    0.0000000  0.00   -0.0001655    0.0004007   -0.0000000
 C   -7.1227456    6.0985956    0.0000000  0.00    0.0015585   -0.0005433   -0.0000000
 C   -5.6883550    6.0615884    0.0000000  0.00   -0.0002196   -0.0000866   -0.0000000
 C   -7.7867789    7.3462672    0.0000000  0.00   -0.0013908    0.0000393   -0.0000000
 C   -4.9674563    7.2725576    0.0000000  0.00    0.0000965   -0.0007804   -0.0000000
 C   -7.0646616    8.5143964    0.0000000  0.00   -0.0007710   -0.0002578   -0.0000000
 C   -5.6729670    8.4838608    0.0000000  0.00   -0.0005795   -0.0004015   -0.0000000
 C   -7.2004293    3.6652404    0.0000000  0.00    0.0016524    0.0000516   -0.0000000
 C   -5.7566720    3.6333821    0.0000000  0.00    0.0004320   -0.0002327   -0.0000000
 C   -7.8442780    4.9036557    0.0000000  0.00   -0.0002154    0.0012498   -0.0000000
 C   -5.0026328    4.8143784    0.0000000  0.00    0.0023566   -0.0002361   -0.0000000
 C   -7.2836715    1.2296120    0.0000000  0.00   -0.0003829    0.0003902   -0.0000000
 C   -5.8453406    1.2221416    0.0000000  0.00    0.0024325   -0.0003110   -0.0000000
 C   -7.9294615    2.4673386    0.0000000  0.00    0.0000188    0.0005367   -0.0000000
 C   -5.0831989    2.3999453    0.0000000  0.00    0.0001483   -0.0006205   -0.0000000
 C   -7.9636979    0.0000000    0.0000000  0.00    0.0001237   -0.0000000   -0.0000000
 C   -5.1658085    0.0000000    0.0000000  0.00   -0.0010393   -0.0000000   -0.0000000
 C   -3.5674054    4.7506249    0.0000000  0.00   -0.0015980    0.0004414   -0.0000000
 C   -2.8389751    5.9509005    0.0000000  0.00   -0.0008037   -0.0000162   -0.0000000
 C   -3.5219108    7.2051257    0.0000000  0.00   -0.0009343   -0.0002855   -0.0000000
 C   -3.6463158    2.3548428    0.0000000  0.00   -0.0015878    0.0006967   -0.0000000
 C   -2.8681181    3.5076314    0.0000000  0.00    0.0009056   -0.0006310   -0.0000000
 C   -3.7744598    0.0000000    0.0000000  0.00   -0.0002339   -0.0000000   -0.0000000
 C   -2.9828518    1.1314993    0.0000000  0.00    0.0000689   -0.0013684   -0.0000000
 C   -1.4174253    5.8620424    0.0000000  0.00    0.0012805   -0.0002382   -0.0000000
 C   -0.7140512    7.0862708    0.0000000  0.00   -0.0006642   -0.0005790   -0.0000000
 C   -2.7676207    8.3723950    0.0000000  0.00    0.0004690   -0.0004652   -0.0000000
 C   -1.4063820    8.3048691    0.0000000  0.00   -0.0008197    0.0004311   -0.0000000
 C   -1.4287345    3.3532938    0.0000000  0.00   -0.0010716   -0.0005824   -0.0000000
 C   -0.7155114    4.5866162    0.0000000  0.00   -0.0006644    0.0004025   -0.0000000
 C   -1.5834284    0.8332374    0.0000000  0.00   -0.0006304    0.0002185   -0.0000000
 C   -0.7459471    2.0010874    0.0000000  0.00   -0.0003042    0.0000234   -0.0000000
 H   -8.8762140    7.3614840    0.0000000  0.00    0.0002544   -0.0013385   -0.0000000
 H   -7.5745626    9.4779822    0.0000000  0.00    0.0001492   -0.0000217   -0.0000000
 H   -5.1487817    9.4377061    0.0000000  0.00   -0.0009795   -0.0017079   -0.0000000
 H   -8.9307286    4.9424567    0.0000000  0.00    0.0011246    0.0003296   -0.0000000
 H   -9.0135609    2.5122495    0.0000000  0.00    0.0000564   -0.0004795   -0.0000000
 H   -9.0483023    0.0000000    0.0000000  0.00    0.0000928   -0.0000000   -0.0000000
 H   -3.2415817    9.3467966    0.0000000  0.00   -0.0003663   -0.0000348   -0.0000000
 H   -0.8706360    9.2390695    0.0000000  0.00    0.0001655   -0.0004007   -0.0000000
 C    7.1227456    6.0985956    0.0000000  0.00   -0.0015585   -0.0005433   -0.0000000
 C    5.6883550    6.0615884    0.0000000  0.00    0.0002196   -0.0000866   -0.0000000
 C    7.7867789    7.3462672    0.0000000  0.00    0.0013908    0.0000393   -0.0000000
 C    4.9674563    7.2725576    0.0000000  0.00   -0.0000965   -0.0007804   -0.0000000
 C    7.0646616    8.5143964    0.0000000  0.00    0.0007710   -0.0002578   -0.0000000
 C    5.6729670    8.4838608    0.0000000  0.00    0.0005795   -0.0004015   -0.0000000
 C    7.2004293    3.6652404    0.0000000  0.00   -0.0016524    0.0000516   -0.0000000
 C    5.7566720    3.6333821    0.0000000  0.00   -0.0004320   -0.0002327   -0.0000000
 C    7.8442780    4.9036557    0.0000000  0.00    0.0002154    0.0012498   -0.0000000
 C    5.0026328    4.8143784    0.0000000  0.00   -0.0023566   -0.0002361   -0.0000000
 C    7.2836715    1.2296120    0.0000000  0.00    0.0003829    0.0003902   -0.0000000
 C    5.8453406    1.2221416    0.0000000  0.00   -0.0024325   -0.0003110   -0.0000000
 C    7.9294615    2.4673386    0.0000000  0.00   -0.0000188    0.0005367   -0.0000000
 C    5.0831989    2.3999453    0.0000000  0.00   -0.0001483   -0.0006205   -0.0000000
 C    3.5674054    4.7506249    0.0000000  0.00    0.0015980    0.0004414   -0.0000000
 C    2.8389751    5.9509005    0.0000000  0.00    0.0008037   -0.0000162   -0.0000000
 C    3.5219108    7.2051257    0.0000000  0.00    0.0009343   -0.0002855   -0.0000000
 C    3.6463158    2.3548428    0.0000000  0.00    0.0015878    0.0006967   -0.0000000
 C    2.8681181    3.5076314    0.0000000  0.00   -0.0009056   -0.0006310   -0.0000000
 C    2.9828518    1.1314993    0.0000000  0.00   -0.0000689   -0.0013684   -0.0000000
 C    1.4174253    5.8620424    0.0000000  0.00   -0.0012805   -0.0002382   -0.0000000
 C    0.7140512    7.0862708    0.0000000  0.00    0.0006642   -0.0005790   -0.0000000
 C    2.7676207    8.3723950    0.0000000  0.00   -0.0004690   -0.0004652   -0.0000000
 C    1.4063820    8.3048691    0.0000000  0.00    0.0008197    0.0004311   -0.0000000
 C    1.4287345    3.3532938    0.0000000  0.00    0.0010716   -0.0005824   -0.0000000
 C    0.7155114    4.5866162    0.0000000  0.00    0.0006644    0.0004025   -0.0000000
 C    1.5834284    0.8332374    0.0000000  0.00    0.0006304    0.0002185   -0.0000000
 C    0.7459471    2.0010874    0.0000000  0.00    0.0003042    0.0000234   -0.0000000
 H    8.8762140    7.3614840    0.0000000  0.00   -0.0002544   -0.0013385   -0.0000000
 H    7.5745626    9.4779822    0.0000000  0.00   -0.0001492   -0.0000217   -0.0000000
 H    5.1487817    9.4377061    0.0000000  0.00    0.0009795   -0.0017079   -0.0000000
 H    8.9307286    4.9424567    0.0000000  0.00   -0.0011246    0.0003296   -0.0000000
 H    9.0135609    2.5122495    0.0000000  0.00   -0.0000564   -0.0004795   -0.0000000
 H    3.2415817    9.3467966    0.0000000  0.00    0.0003663   -0.0000348   -0.0000000
 H    0.8706360    9.2390695    0.0000000  0.00   -0.0001655   -0.0004007   -0.0000000
 C   -7.1227456   -6.0985956    0.0000000  0.00    0.0015585    0.0005433   -0.0000000
 C   -5.6883550   -6.0615884    0.0000000  0.00   -0.0002196    0.0000866   -0.0000000
 C   -7.7867789   -7.3462672    0.0000000  0.00   -0.0013908   -0.0000393   -0.0000000
 C   -4.9674563   -7.2725576    0.0000000  0.00    0.0000965    0.0007804   -0.0000000
 C   -7.0646616   -8.5143964    0.0000000  0.00   -0.0007710    0.0002578   -0.0000000
 C   -5.6729670   -8.4838608    0.0000000  0.00   -0.0005795    0.0004015   -0.0000000
 C   -7.2004293   -3.6652404    0.0000000  0.00    0.0016524   -0.0000516   -0.0000000
 C   -5.7566720   -3.6333821    0.0000000  0.00    0.0004320    0.0002327   -0.0000000
 C   -7.8442780   -4.9036557    0.0000000  0.00   -0.0002154   -0.0012498   -0.0000000
 C   -5.0026328   -4.8143784    0.0000000  0.00    0.0023566    0.0002361   -0.0000000
 C   -7.2836715   -1.2296120    0.0000000  0.00   -0.0003829   -0.0003902   -0.0000000
 C   -5.8453406   -1.2221416    0.0000000  0.00    0.0024325    0.0003110   -0.0000000
 C   -7.9294615   -2.4673386    0.0000000  0.00    0.0000188   -0.0005367   -0.0000000
 C   -5.0831989   -2.3999453    0.0000000  0.00    0.0001483    0.0006205   -0.0000000
 C   -3.5674054   -4.7506249    0.0000000  0.00   -0.0015980   -0.0004414   -0.0000000
 C   -2.8389751   -5.9509005    0.0000000  0.00   -0.0008037    0.0000162   -0.0000000
 C   -3.5219108   -7.2051257    0.0000000  0.00   -0.0009343    0.0002855   -0.0000000
 C   -3.6463158   -2.3548428    0.0000000  0.00   -0.0015878   -0.0006967   -0.0000000
 C   -2.8681181   -3.5076314    0.0000000  0.00    0.0009056    0.0006310   -0.0000000
 C   -2.9828518   -1.1314993    0.0000000  0.00    0.0000689    0.0013684   -0.0000000
 C   -1.4174253   -5.8620424    0.0000000  0.00    0.0012805    0.0002382   -0.0000000
 C   -0.7140512   -7.0862708    0.0000000  0.00   -0.0006642    0.0005790   -0.0000000
 C   -2.7676207   -8.3723950    0.0000000  0.00    0.0004690    0.0004652   -0.0000000
 C   -1.4063820   -8.3048691    0.0000000  0.00   -0.0008197   -0.0004311   -0.0000000
 C   -1.4287345   -3.3532938    0.0000000  0.00   -0.0010716    0.0005824   -0.0000000
 C   -0.7155114   -4.5866162    0.0000000  0.00   -0.0006644   -0.0004025   -0.0000000
 C   -1.5834284   -0.8332374    0.0000000  0.00   -0.0006304   -0.0002185   -0.0000000
 C   -0.7459471   -2.0010874    0.0000000  0.00   -0.0003042   -0.0000234   -0.0000000
 H   -8.8762140   -7.3614840    0.0000000  0.00    0.0002544    0.0013385   -0.0000000
 H   -7.5745626   -9.4779822    0.0000000  0.00    0.0001492    0.0000217   -0.0000000
 H   -5.1487817   -9.4377061    0.0000000  0.00   -0.0009795    0.0017079   -0.0000000
 H   -8.9307286   -4.9424567    0.0000000  0.00    0.0011246   -0.0003296   -0.0000000
 H   -9.0135609   -2.5122495    0.0000000  0.00    0.0000564    0.0004795   -0.0000000
 H   -3.2415817   -9.3467966    0.0000000  0.00   -0.0003663    0.0000348   -0.0000000
 H   -0.8706360   -9.2390695    0.0000000  0.00    0.0001655    0.0004007   -0.0000000
