148
 Energy =   -4513.2314760250
 C    7.1179661   -6.0934757    0.0000000  0.00    0.0007567   -0.0004846   -0.0000000
 C    5.6820570   -6.0541432    0.0000000  0.00   -0.0003003   -0.0000069   -0.0000000
 C    7.7853794   -7.3388162    0.0000000  0.00    0.0006029    0.0000978   -0.0000000
 C    4.9608565   -7.2637318    0.0000000  0.00    0.0010308    0.0000090   -0.0000000
 C    7.0630208   -8.5087051    0.0000000  0.00    0.0003650    0.0003424   -0.0000000
 C    5.6716543   -8.4752060    0.0000000  0.00    0.0010069   -0.0005944   -0.0000000
 C    7.1906851   -3.6597375    0.0000000  0.00    0.0002372    0.0005409   -0.0000000
 C    5.7474412   -3.6252590    0.0000000  0.00   -0.0003083   -0.0005703   -0.0000000
 C    7.8395470   -4.8985609    0.0000000  0.00    0.0008474   -0.0001949   -0.0000000
 C    4.9934892   -4.8072285    0.0000000  0.00    0.0009668    0.0002185   -0.0000000
 C    7.2780279   -1.2257731    0.0000000  0.00   -0.0001472   -0.0005618   -0.0000000
 C    5.8432379   -1.2177356    0.0000000  0.00    0.0000710    0.0002524   -0.0000000
 C    7.9253089   -2.4674541    0.0000000  0.00    0.0001155   -0.0004869   -0.0000000
 C    5.0758001   -2.3959435    0.0000000  0.00    0.0003589   -0.0001970   -0.0000000
 C    7.9658706    0.0000000    0.0000000  0.00    0.0009583   -0.0000000   -0.0000000
 C    5.1644905    0.0000000    0.0000000  0.00   -0.0017236   -0.0000000   -0.0000000
 C    3.5611293   -4.7444039    0.0000000  0.00   -0.0002592   -0.0005942   -0.0000000
 C    2.8351547   -5.9515365    0.0000000  0.00    0.0009275   -0.0000755   -0.0000000
 C    3.5165769   -7.2012027    0.0000000  0.00    0.0003694   -0.0003725   -0.0000000
 C    3.6385445   -2.3492442    0.0000000  0.00   -0.0012093   -0.0009125   -0.0000000
 C    2.8613850   -3.5020520    0.0000000  0.00    0.0019433    0.0013225   -0.0000000
 C    3.7745003    0.0000000    0.0000000  0.00    0.0007501   -0.0000000   -0.0000000
 C    2.9765870   -1.1228505    0.0000000  0.00    0.0003881   -0.0007414   -0.0000000
 C    1.4146392   -5.8630256    0.0000000  0.00    0.0001482   -0.0005264   -0.0000000
 C    0.7124894   -7.0849944    0.0000000  0.00    0.0001810    0.0003582   -0.0000000
 C    2.7616729   -8.3747220    0.0000000  0.00    0.0009159    0.0002613   -0.0000000
 C    1.4054064   -8.3105412    0.0000000  0.00    0.0001554   -0.0015080   -0.0000000
 C    1.4195846   -3.3407794    0.0000000  0.00    0.0000359   -0.0007105   -0.0000000
 C    0.7096292   -4.5836778    0.0000000  0.00    0.0003742   -0.0000661   -0.0000000
 C    1.5799261   -0.7984534    0.0000000  0.00   -0.0002929    0.0000166   -0.0000000
 C    0.7329279   -2.0041989    0.0000000  0.00    0.0007075    0.0000045   -0.0000000
 H    8.8733509   -7.3512107    0.0000000  0.00    0.0013865    0.0013306   -0.0000000
 H    7.5723125   -9.4698650    0.0000000  0.00    0.0004664   -0.0004210   -0.0000000
 H    5.1435339   -9.4240224    0.0000000  0.00   -0.0005392    0.0002814   -0.0000000
 H    8.9264665   -4.9341744    0.0000000  0.00    0.0006968    0.0001235   -0.0000000
 H    9.0098999   -2.5156518    0.0000000  0.00    0.0012791   -0.0003510   -0.0000000
 H    9.0504235    0.0000000    0.0000000  0.00    0.0012691   -0.0000000   -0.0000000
 H    3.2336443   -9.3513787    0.0000000  0.00    0.0004133   -0.0010704   -0.0000000
 H    0.8706556   -9.2504991    0.0000000  0.00   -0.0006577    0.0009904   -0.0000000
 C   -7.1179661    6.0934757    0.0000000  0.00   -0.0007567    0.0004846   -0.0000000
 C   -5.6820570    6.0541432    0.0000000  0.00    0.0003003    0.0000069   -0.0000000
 C   -7.7853794    7.3388162    0.0000000  0.00   -0.0006029   -0.0000978   -0.0000000
 C   -4.9608565    7.2637318    0.0000000  0.00   -0.0010308   -0.0000090   -0.0000000
 C   -7.0630208    8.5087051    0.0000000  0.00   -0.0003650   -0.0003424   -0.0000000
 C   -5.6716543    8.4752060    0.0000000  0.00   -0.0010069    0.0005944   -0.0000000
 C   -7.1906851    3.6597375    0.0000000  0.00   -0.0002372   -0.0005409   -0.0000000
 C   -5.7474412    3.6252590    0.0000000  0.00    0.0003083    0.0005703   -0.0000000
 C   -7.8395470    4.8985609    0.0000000  0.00   -0.0008474    0.0001949   -0.0000000
 C   -4.9934892    4.8072285    0.0000000  0.00   -0.0009668   -0.0002185   -0.0000000
 C   -7.2780279    1.2257731    0.0000000  0.00    0.0001472    0.0005618   -0.0000000
 C   -5.8432379    1.2177356    0.0000000  0.00   -0.0000710   -0.0002524   -0.0000000
 C   -7.9253089    2.4674541    0.0000000  0.00   -0.0001155    0.0004869   -0.0000000
 C   -5.0758001    2.3959435    0.0000000  0.00   -0.0003589    0.0001970   -0.0000000
 C   -7.9658706    0.0000000    0.0000000  0.00   -0.0009583   -0.0000000   -0.0000000
 C   -5.1644905    0.0000000    0.0000000  0.00    0.0017236   -0.0000000   -0.0000000
 C   -3.5611293    4.7444039    0.0000000  0.00    0.0002592    0.0005942   -0.0000000
 C   -2.8351547    5.9515365    0.0000000  0.00   -0.0009275    0.0000755   -0.0000000
 C   -3.5165769    7.2012027    0.0000000  0.00   -0.0003694    0.0003725   -0.0000000
 C   -3.6385445    2.3492442    0.0000000  0.00    0.0012093    0.0009125   -0.0000000
 C   -2.8613850    3.5020520    0.0000000  0.00   -0.0019433   -0.0013225   -0.0000000
 C   -3.7745003    0.0000000    0.0000000  0.00   -0.0007501   -0.0000000   -0.0000000
 C   -2.9765870    1.1228505    0.0000000  0.00   -0.0003881    0.0007414   -0.0000000
 C   -1.4146392    5.8630256    0.0000000  0.00   -0.0001482    0.0005264   -0.0000000
 C   -0.7124894    7.0849944    0.0000000  0.00   -0.0001810   -0.0003582   -0.0000000
 C   -2.7616729    8.3747220    0.0000000  0.00   -0.0009159   -0.0002613   -0.0000000
 C   -1.4054064    8.3105412    0.0000000  0.00   -0.0001554    0.0015080   -0.0000000
 C   -1.4195846    3.3407794    0.0000000  0.00   -0.0000359    0.0007105   -0.0000000
 C   -0.7096292    4.5836778    0.0000000  0.00   -0.0003742    0.0000661   -0.0000000
 C   -1.5799261    0.7984534    0.0000000  0.00    0.0002929   -0.0000166   -0.0000000
 C   -0.7329279    2.0041989    0.0000000  0.00   -0.0007075   -0.0000045   -0.0000000
 H   -8.8733509    7.3512107    0.0000000  0.00   -0.0013865   -0.0013306   -0.0000000
 H   -7.5723125    9.4698650    0.0000000  0.00   -0.0004664    0.0004210   -0.0000000
 H   -5.1435339    9.4240224    0.0000000  0.00    0.0005392   -0.0002814   -0.0000000
 H   -8.9264665    4.9341744    0.0000000  0.00   -0.0006968   -0.0001235   -0.0000000
 H   -9.0098999    2.5156518    0.0000000  0.00   -0.0012791    0.0003510   -0.0000000
 H   -9.0504235    0.0000000    0.0000000  0.00   -0.0012691   -0.0000000   -0.0000000
 H   -3.2336443    9.3513787    0.0000000  0.00   -0.0004133    0.0010704   -0.0000000
 H   -0.8706556    9.2504991    0.0000000  0.00    0.0006577   -0.0009904   -0.0000000
 C    7.1179661    6.0934757    0.0000000  0.00    0.0007567    0.0004846   -0.0000000
 C    5.6820570    6.0541432    0.0000000  0.00   -0.0003003    0.0000069   -0.0000000
 C    7.7853794    7.3388162    0.0000000  0.00    0.0006029   -0.0000978   -0.0000000
 C    4.9608565    7.2637318    0.0000000  0.00    0.0010308   -0.0000090   -0.0000000
 C    7.0630208    8.5087051    0.0000000  0.00    0.0003650   -0.0003424   -0.0000000
 C    5.6716543    8.4752060    0.0000000  0.00    0.0010069    0.0005944   -0.0000000
 C    7.1906851    3.6597375    0.0000000  0.00    0.0002372   -0.0005409   -0.0000000
 C    5.7474412    3.6252590    0.0000000  0.00   -0.0003083    0.0005703   -0.0000000
 C    7.8395470    4.8985609    0.0000000  0.00    0.0008474    0.0001949   -0.0000000
 C    4.9934892    4.8072285    0.0000000  0.00    0.0009668   -0.0002185   -0.0000000
 C    7.2780279    1.2257731    0.0000000  0.00   -0.0001472    0.0005618   -0.0000000
 C    5.8432379    1.2177356    0.0000000  0.00    0.0000710   -0.0002524   -0.0000000
 C    7.9253089    2.4674541    0.0000000  0.00    0.0001155    0.0004869   -0.0000000
 C    5.0758001    2.3959435    0.0000000  0.00    0.0003589    0.0001970   -0.0000000
 C    3.5611293    4.7444039    0.0000000  0.00   -0.0002592    0.0005942   -0.0000000
 C    2.8351547    5.9515365    0.0000000  0.00    0.0009275    0.0000755   -0.0000000
 C    3.5165769    7.2012027    0.0000000  0.00    0.0003694    0.0003725   -0.0000000
 C    3.6385445    2.3492442    0.0000000  0.00   -0.0012093    0.0009125   -0.0000000
 C    2.8613850    3.5020520    0.0000000  0.00    0.0019433   -0.0013225   -0.0000000
 C    2.9765870    1.1228505    0.0000000  0.00    0.0003881    0.0007414   -0.0000000
 C    1.4146392    5.8630256    0.0000000  0.00    0.0001482    0.0005264   -0.0000000
 C    0.7124894    7.0849944    0.0000000  0.00    0.0001810   -0.0003582   -0.0000000
 C    2.7616729    8.3747220    0.0000000  0.00    0.0009159   -0.0002613   -0.0000000
 C    1.4054064    8.3105412    0.0000000  0.00    0.0001554    0.0015080   -0.0000000
 C    1.4195846    3.3407794    0.0000000  0.00    0.0000359    0.0007105   -0.0000000
 C    0.7096292    4.5836778    0.0000000  0.00    0.0003742    0.0000661   -0.0000000
 C    1.5799261    0.7984534    0.0000000  0.00   -0.0002929   -0.0000166   -0.0000000
 C    0.7329279    2.0041989    0.0000000  0.00    0.0007075   -0.0000045   -0.0000000
 H    8.8733509    7.3512107    0.0000000  0.00    0.0013865   -0.0013306   -0.0000000
 H    7.5723125    9.4698650    0.0000000  0.00    0.0004664    0.0004210   -0.0000000
 H    5.1435339    9.4240224    0.0000000  0.00   -0.0005392   -0.0002814   -0.0000000
 H    8.9264665    4.9341744    0.0000000  0.00    0.0006968   -0.0001235   -0.0000000
 H    9.0098999    2.5156518    0.0000000  0.00    0.0012791    0.0003510   -0.0000000
 H    3.2336443    9.3513787    0.0000000  0.00    0.0004133    0.0010704   -0.0000000
 H    0.8706556    9.2504991    0.0000000  0.00   -0.0006577   -0.0009904   -0.0000000
 C   -7.1179661   -6.0934757    0.0000000  0.00   -0.0007567   -0.0004846   -0.0000000
 C   -5.6820570   -6.0541432    0.0000000  0.00    0.0003003   -0.0000069   -0.0000000
 C   -7.7853794   -7.3388162    0.0000000  0.00   -0.0006029    0.0000978   -0.0000000
 C   -4.9608565   -7.2637318    0.0000000  0.00   -0.0010308    0.0000090   -0.0000000
 C   -7.0630208   -8.5087051    0.0000000  0.00   -0.0003650    0.0003424   -0.0000000
 C   -5.6716543   -8.4752060    0.0000000  0.00   -0.0010069   -0.0005944   -0.0000000
 C   -7.1906851   -3.6597375    0.0000000  0.00   -0.0002372    0.0005409   -0.0000000
 C   -5.7474412   -3.6252590    0.0000000  0.00    0.0003083   -0.0005703   -0.0000000
 C   -7.8395470   -4.8985609    0.0000000  0.00   -0.0008474   -0.0001949   -0.0000000
 C   -4.9934892   -4.8072285    0.0000000  0.00   -0.0009668    0.0002185   -0.0000000
 C   -7.2780279   -1.2257731    0.0000000  0.00    0.0001472   -0.0005618   -0.0000000
 C   -5.8432379   -1.2177356    0.0000000  0.00   -0.0000710    0.0002524   -0.0000000
 C   -7.9253089   -2.4674541    0.0000000  0.00   -0.0001155   -0.0004869   -0.0000000
 C   -5.0758001   -2.3959435    0.0000000  0.00   -0.0003589   -0.0001970   -0.0000000
 C   -3.5611293   -4.7444039    0.0000000  0.00    0.0002592   -0.0005942   -0.0000000
 C   -2.8351547   -5.9515365    0.0000000  0.00   -0.0009275   -0.0000755   -0.0000000
 C   -3.5165769   -7.2012027    0.0000000  0.00   -0.0003694   -0.0003725   -0.0000000
 C   -3.6385445   -2.3492442    0.0000000  0.00    0.0012093   -0.0009125   -0.0000000
 C   -2.8613850   -3.5020520    0.0000000  0.00   -0.0019433    0.0013225   -0.0000000
 C   -2.9765870   -1.1228505    0.0000000  0.00   -0.0003881   -0.0007414   -0.0000000
 C   -1.4146392   -5.8630256    0.0000000  0.00   -0.0001482   -0.0005264   -0.0000000
 C   -0.7124894   -7.0849944    0.0000000  0.00   -0.0001810    0.0003582   -0.0000000
 C   -2.7616729   -8.3747220    0.0000000  0.00   -0.0009159    0.0002613   -0.0000000
 C   -1.4054064   -8.3105412    0.0000000  0.00   -0.0001554   -0.0015080   -0.0000000
 C   -1.4195846   -3.3407794    0.0000000  0.00   -0.0000359   -0.0007105   -0.0000000
 C   -0.7096292   -4.5836778    0.0000000  0.00   -0.0003742   -0.0000661   -0.0000000
 C   -1.5799261   -0.7984534    0.0000000  0.00    0.0002929    0.0000166   -0.0000000
 C   -0.7329279   -2.0041989    0.0000000  0.00   -0.0007075    0.0000045   -0.0000000
 H   -8.8733509   -7.3512107    0.0000000  0.00   -0.0013865    0.0013306   -0.0000000
 H   -7.5723125   -9.4698650    0.0000000  0.00   -0.0004664   -0.0004210   -0.0000000
 H   -5.1435339   -9.4240224    0.0000000  0.00    0.0005392    0.0002814   -0.0000000
 H   -8.9264665   -4.9341744    0.0000000  0.00   -0.0006968    0.0001235   -0.0000000
 H   -9.0098999   -2.5156518    0.0000000  0.00   -0.0012791   -0.0003510   -0.0000000
 H   -3.2336443   -9.3513787    0.0000000  0.00   -0.0004133   -0.0010704   -0.0000000
 H   -0.8706556   -9.2504991    0.0000000  0.00    0.0006577    0.0009904   -0.0000000
