148
 Energy =   -4513.3941711340
 C    7.1199823   -6.1094276    0.0000000  0.00   -0.0006945    0.0025268   -0.0000000
 C    5.6850137   -6.0742931    0.0000000  0.00   -0.0008687   -0.0008330   -0.0000000
 C    7.7827488   -7.3547019    0.0000000  0.00    0.0012637    0.0022753   -0.0000000
 C    4.9623956   -7.2834140    0.0000000  0.00   -0.0007612    0.0019815   -0.0000000
 C    7.0594739   -8.5298933    0.0000000  0.00    0.0004120   -0.0013538   -0.0000000
 C    5.6712856   -8.5008661    0.0000000  0.00   -0.0015525   -0.0003475   -0.0000000
 C    7.1905264   -3.6710026    0.0000000  0.00    0.0009081    0.0020904   -0.0000000
 C    5.7481375   -3.6378149    0.0000000  0.00    0.0038191    0.0019944   -0.0000000
 C    7.8385533   -4.9068468    0.0000000  0.00    0.0015623    0.0015825   -0.0000000
 C    4.9938886   -4.8246928    0.0000000  0.00    0.0007474    0.0002891   -0.0000000
 C    7.2647604   -1.2310048    0.0000000  0.00   -0.0002444   -0.0008470   -0.0000000
 C    5.8327534   -1.2229947    0.0000000  0.00    0.0026529    0.0028720   -0.0000000
 C    7.9175946   -2.4675016    0.0000000  0.00   -0.0014611    0.0013245   -0.0000000
 C    5.0736105   -2.4071517    0.0000000  0.00   -0.0012844   -0.0050895   -0.0000000
 C    7.9496247    0.0000000    0.0000000  0.00    0.0016653   -0.0000000   -0.0000000
 C    5.1550928    0.0000000    0.0000000  0.00   -0.0051334   -0.0000000   -0.0000000
 C    3.5670635   -4.7647173    0.0000000  0.00   -0.0038975   -0.0000091   -0.0000000
 C    2.8392047   -5.9660126    0.0000000  0.00    0.0013928    0.0006824   -0.0000000
 C    3.5214396   -7.2177289    0.0000000  0.00   -0.0024885   -0.0002127   -0.0000000
 C    3.6396484   -2.3639342    0.0000000  0.00   -0.0019495    0.0029159   -0.0000000
 C    2.8634932   -3.5146749    0.0000000  0.00    0.0021127   -0.0019773   -0.0000000
 C    3.7650693    0.0000000    0.0000000  0.00    0.0061030   -0.0000000   -0.0000000
 C    2.9738768   -1.1344627    0.0000000  0.00   -0.0011807   -0.0038258   -0.0000000
 C    1.4159153   -5.8791004    0.0000000  0.00   -0.0039904   -0.0015815   -0.0000000
 C    0.7117015   -7.1004021    0.0000000  0.00    0.0015944    0.0009635   -0.0000000
 C    2.7622295   -8.3903969    0.0000000  0.00   -0.0009266   -0.0005927   -0.0000000
 C    1.4060982   -8.3277389    0.0000000  0.00    0.0003998    0.0002248   -0.0000000
 C    1.4280514   -3.3618044    0.0000000  0.00   -0.0047213   -0.0018274   -0.0000000
 C    0.7109657   -4.6020753    0.0000000  0.00    0.0052542    0.0007389   -0.0000000
 C    1.5834871   -0.8427374    0.0000000  0.00   -0.0028245    0.0006941   -0.0000000
 C    0.7438657   -2.0153578    0.0000000  0.00   -0.0003521   -0.0009269   -0.0000000
 H    8.8666038   -7.3732148    0.0000000  0.00   -0.0004460    0.0036989   -0.0000000
 H    7.5731886   -9.4844203    0.0000000  0.00    0.0004928    0.0013191   -0.0000000
 H    5.1422007   -9.4422357    0.0000000  0.00   -0.0006221   -0.0016215   -0.0000000
 H    8.9227058   -4.9385070    0.0000000  0.00    0.0007239    0.0004664   -0.0000000
 H    9.0016267   -2.5045710    0.0000000  0.00    0.0003983   -0.0036123   -0.0000000
 H    9.0346512    0.0000000    0.0000000  0.00   -0.0022168   -0.0000000   -0.0000000
 H    3.2380646   -9.3594066    0.0000000  0.00    0.0022366   -0.0002907   -0.0000000
 H    0.8674098   -9.2593898    0.0000000  0.00   -0.0001578    0.0002124   -0.0000000
 C   -7.1199823    6.1094276    0.0000000  0.00    0.0006945   -0.0025268   -0.0000000
 C   -5.6850137    6.0742931    0.0000000  0.00    0.0008687    0.0008330   -0.0000000
 C   -7.7827488    7.3547019    0.0000000  0.00   -0.0012637   -0.0022753   -0.0000000
 C   -4.9623956    7.2834140    0.0000000  0.00    0.0007612   -0.0019815   -0.0000000
 C   -7.0594739    8.5298933    0.0000000  0.00   -0.0004120    0.0013538   -0.0000000
 C   -5.6712856    8.5008661    0.0000000  0.00    0.0015525    0.0003475   -0.0000000
 C   -7.1905264    3.6710026    0.0000000  0.00   -0.0009081   -0.0020904   -0.0000000
 C   -5.7481375    3.6378149    0.0000000  0.00   -0.0038191   -0.0019944   -0.0000000
 C   -7.8385533    4.9068468    0.0000000  0.00   -0.0015623   -0.0015825   -0.0000000
 C   -4.9938886    4.8246928    0.0000000  0.00   -0.0007474   -0.0002891   -0.0000000
 C   -7.2647604    1.2310048    0.0000000  0.00    0.0002444    0.0008470   -0.0000000
 C   -5.8327534    1.2229947    0.0000000  0.00   -0.0026529   -0.0028720   -0.0000000
 C   -7.9175946    2.4675016    0.0000000  0.00    0.0014611   -0.0013245   -0.0000000
 C   -5.0736105    2.4071517    0.0000000  0.00    0.0012844    0.0050895   -0.0000000
 C   -7.9496247    0.0000000    0.0000000  0.00   -0.0016653   -0.0000000   -0.0000000
 C   -5.1550928    0.0000000    0.0000000  0.00    0.0051334   -0.0000000   -0.0000000
 C   -3.5670635    4.7647173    0.0000000  0.00    0.0038975    0.0000091   -0.0000000
 C   -2.8392047    5.9660126    0.0000000  0.00   -0.0013928   -0.0006824   -0.0000000
 C   -3.5214396    7.2177289    0.0000000  0.00    0.0024885    0.0002127   -0.0000000
 C   -3.6396484    2.3639342    0.0000000  0.00    0.0019495   -0.0029159   -0.0000000
 C   -2.8634932    3.5146749    0.0000000  0.00   -0.0021127    0.0019773   -0.0000000
 C   -3.7650693    0.0000000    0.0000000  0.00   -0.0061030   -0.0000000   -0.0000000
 C   -2.9738768    1.1344627    0.0000000  0.00    0.0011807    0.0038258   -0.0000000
 C   -1.4159153    5.8791004    0.0000000  0.00    0.0039904    0.0015815   -0.0000000
 C   -0.7117015    7.1004021    0.0000000  0.00   -0.0015944   -0.0009635   -0.0000000
 C   -2.7622295    8.3903969    0.0000000  0.00    0.0009266    0.0005927   -0.0000000
 C   -1.4060982    8.3277389    0.0000000  0.00   -0.0003998   -0.0002248   -0.0000000
 C   -1.4280514    3.3618044    0.0000000  0.00    0.0047213    0.0018274   -0.0000000
 C   -0.7109657    4.6020753    0.0000000  0.00   -0.0052542   -0.0007389   -0.0000000
 C   -1.5834871    0.8427374    0.0000000  0.00    0.0028245   -0.0006941   -0.0000000
 C   -0.7438657    2.0153578    0.0000000  0.00    0.0003521    0.0009269   -0.0000000
 H   -8.8666038    7.3732148    0.0000000  0.00    0.0004460   -0.0036989   -0.0000000
 H   -7.5731886    9.4844203    0.0000000  0.00   -0.0004928   -0.0013191   -0.0000000
 H   -5.1422007    9.4422357    0.0000000  0.00    0.0006221    0.0016215   -0.0000000
 H   -8.9227058    4.9385070    0.0000000  0.00   -0.0007239   -0.0004664   -0.0000000
 H   -9.0016267    2.5045710    0.0000000  0.00   -0.0003983    0.0036123   -0.0000000
 H   -9.0346512    0.0000000    0.0000000  0.00    0.0022168   -0.0000000   -0.0000000
 H   -3.2380646    9.3594066    0.0000000  0.00   -0.0022366    0.0002907   -0.0000000
 H   -0.8674098    9.2593898    0.0000000  0.00    0.0001578   -0.0002124   -0.0000000
 C    7.1199823    6.1094276    0.0000000  0.00   -0.0006945   -0.0025268   -0.0000000
 C    5.6850137    6.0742931    0.0000000  0.00   -0.0008687    0.0008330   -0.0000000
 C    7.7827488    7.3547019    0.0000000  0.00    0.0012637   -0.0022753   -0.0000000
 C    4.9623956    7.2834140    0.0000000  0.00   -0.0007612   -0.0019815   -0.0000000
 C    7.0594739    8.5298933    0.0000000  0.00    0.0004120    0.0013538   -0.0000000
 C    5.6712856    8.5008661    0.0000000  0.00   -0.0015525    0.0003475   -0.0000000
 C    7.1905264    3.6710026    0.0000000  0.00    0.0009081   -0.0020904   -0.0000000
 C    5.7481375    3.6378149    0.0000000  0.00    0.0038191   -0.0019944   -0.0000000
 C    7.8385533    4.9068468    0.0000000  0.00    0.0015623   -0.0015825   -0.0000000
 C    4.9938886    4.8246928    0.0000000  0.00    0.0007474   -0.0002891   -0.0000000
 C    7.2647604    1.2310048    0.0000000  0.00   -0.0002444    0.0008470   -0.0000000
 C    5.8327534    1.2229947    0.0000000  0.00    0.0026529   -0.0028720   -0.0000000
 C    7.9175946    2.4675016    0.0000000  0.00   -0.0014611   -0.0013245   -0.0000000
 C    5.0736105    2.4071517    0.0000000  0.00   -0.0012844    0.0050895   -0.0000000
 C    3.5670635    4.7647173    0.0000000  0.00   -0.0038975    0.0000091   -0.0000000
 C    2.8392047    5.9660126    0.0000000  0.00    0.0013928   -0.0006824   -0.0000000
 C    3.5214396    7.2177289    0.0000000  0.00   -0.0024885    0.0002127   -0.0000000
 C    3.6396484    2.3639342    0.0000000  0.00   -0.0019495   -0.0029159   -0.0000000
 C    2.8634932    3.5146749    0.0000000  0.00    0.0021127    0.0019773   -0.0000000
 C    2.9738768    1.1344627    0.0000000  0.00   -0.0011807    0.0038258   -0.0000000
 C    1.4159153    5.8791004    0.0000000  0.00   -0.0039904    0.0015815   -0.0000000
 C    0.7117015    7.1004021    0.0000000  0.00    0.0015944   -0.0009635   -0.0000000
 C    2.7622295    8.3903969    0.0000000  0.00   -0.0009266    0.0005927   -0.0000000
 C    1.4060982    8.3277389    0.0000000  0.00    0.0003998   -0.0002248   -0.0000000
 C    1.4280514    3.3618044    0.0000000  0.00   -0.0047213    0.0018274   -0.0000000
 C    0.7109657    4.6020753    0.0000000  0.00    0.0052542   -0.0007389   -0.0000000
 C    1.5834871    0.8427374    0.0000000  0.00   -0.0028245   -0.0006941   -0.0000000
 C    0.7438657    2.0153578    0.0000000  0.00   -0.0003521    0.0009269   -0.0000000
 H    8.8666038    7.3732148    0.0000000  0.00   -0.0004460   -0.0036989   -0.0000000
 H    7.5731886    9.4844203    0.0000000  0.00    0.0004928   -0.0013191   -0.0000000
 H    5.1422007    9.4422357    0.0000000  0.00   -0.0006221    0.0016215   -0.0000000
 H    8.9227058    4.9385070    0.0000000  0.00    0.0007239   -0.0004664   -0.0000000
 H    9.0016267    2.5045710    0.0000000  0.00    0.0003983    0.0036123   -0.0000000
 H    3.2380646    9.3594066    0.0000000  0.00    0.0022366    0.0002907   -0.0000000
 H    0.8674098    9.2593898    0.0000000  0.00   -0.0001578   -0.0002124   -0.0000000
 C   -7.1199823   -6.1094276    0.0000000  0.00    0.0006945    0.0025268   -0.0000000
 C   -5.6850137   -6.0742931    0.0000000  0.00    0.0008687   -0.0008330   -0.0000000
 C   -7.7827488   -7.3547019    0.0000000  0.00   -0.0012637    0.0022753   -0.0000000
 C   -4.9623956   -7.2834140    0.0000000  0.00    0.0007612    0.0019815   -0.0000000
 C   -7.0594739   -8.5298933    0.0000000  0.00   -0.0004120   -0.0013538   -0.0000000
 C   -5.6712856   -8.5008661    0.0000000  0.00    0.0015525   -0.0003475   -0.0000000
 C   -7.1905264   -3.6710026    0.0000000  0.00   -0.0009081    0.0020904   -0.0000000
 C   -5.7481375   -3.6378149    0.0000000  0.00   -0.0038191    0.0019944   -0.0000000
 C   -7.8385533   -4.9068468    0.0000000  0.00   -0.0015623    0.0015825   -0.0000000
 C   -4.9938886   -4.8246928    0.0000000  0.00   -0.0007474    0.0002891   -0.0000000
 C   -7.2647604   -1.2310048    0.0000000  0.00    0.0002444   -0.0008470   -0.0000000
 C   -5.8327534   -1.2229947    0.0000000  0.00   -0.0026529    0.0028720   -0.0000000
 C   -7.9175946   -2.4675016    0.0000000  0.00    0.0014611    0.0013245   -0.0000000
 C   -5.0736105   -2.4071517    0.0000000  0.00    0.0012844   -0.0050895   -0.0000000
 C   -3.5670635   -4.7647173    0.0000000  0.00    0.0038975   -0.0000091   -0.0000000
 C   -2.8392047   -5.9660126    0.0000000  0.00   -0.0013928    0.0006824   -0.0000000
 C   -3.5214396   -7.2177289    0.0000000  0.00    0.0024885   -0.0002127   -0.0000000
 C   -3.6396484   -2.3639342    0.0000000  0.00    0.0019495    0.0029159   -0.0000000
 C   -2.8634932   -3.5146749    0.0000000  0.00   -0.0021127   -0.0019773   -0.0000000
 C   -2.9738768   -1.1344627    0.0000000  0.00    0.0011807   -0.0038258   -0.0000000
 C   -1.4159153   -5.8791004    0.0000000  0.00    0.0039904   -0.0015815   -0.0000000
 C   -0.7117015   -7.1004021    0.0000000  0.00   -0.0015944    0.0009635   -0.0000000
 C   -2.7622295   -8.3903969    0.0000000  0.00    0.0009266   -0.0005927   -0.0000000
 C   -1.4060982   -8.3277389    0.0000000  0.00   -0.0003998    0.0002248   -0.0000000
 C   -1.4280514   -3.3618044    0.0000000  0.00    0.0047213   -0.0018274   -0.0000000
 C   -0.7109657   -4.6020753    0.0000000  0.00   -0.0052542    0.0007389   -0.0000000
 C   -1.5834871   -0.8427374    0.0000000  0.00    0.0028245    0.0006941   -0.0000000
 C   -0.7438657   -2.0153578    0.0000000  0.00    0.0003521   -0.0009269   -0.0000000
 H   -8.8666038   -7.3732148    0.0000000  0.00    0.0004460    0.0036989   -0.0000000
 H   -7.5731886   -9.4844203    0.0000000  0.00   -0.0004928    0.0013191   -0.0000000
 H   -5.1422007   -9.4422357    0.0000000  0.00    0.0006221   -0.0016215   -0.0000000
 H   -8.9227058   -4.9385070    0.0000000  0.00   -0.0007239    0.0004664   -0.0000000
 H   -9.0016267   -2.5045710    0.0000000  0.00   -0.0003983   -0.0036123   -0.0000000
 H   -3.2380646   -9.3594066    0.0000000  0.00   -0.0022366   -0.0002907   -0.0000000
 H   -0.8674098   -9.2593898    0.0000000  0.00    0.0001578    0.0002124   -0.0000000
