148
 Energy =   -4513.2279478830
 C    7.1197028   -6.0921229    0.0000000  0.00   -0.0002143    0.0001447   -0.0000000
 C    5.6835005   -6.0531553    0.0000000  0.00    0.0015008   -0.0011479   -0.0000000
 C    7.7867800   -7.3383957    0.0000000  0.00    0.0008604    0.0019495   -0.0000000
 C    4.9618283   -7.2641121    0.0000000  0.00   -0.0001827   -0.0009994   -0.0000000
 C    7.0642960   -8.5068956    0.0000000  0.00    0.0000647   -0.0011704   -0.0000000
 C    5.6717020   -8.4742307    0.0000000  0.00    0.0011368    0.0015587   -0.0000000
 C    7.1918703   -3.6611649    0.0000000  0.00   -0.0004971    0.0019522   -0.0000000
 C    5.7487281   -3.6254369    0.0000000  0.00   -0.0003066   -0.0015418   -0.0000000
 C    7.8407793   -4.8972525    0.0000000  0.00    0.0025661   -0.0008357   -0.0000000
 C    4.9946161   -4.8072451    0.0000000  0.00   -0.0009105    0.0015277   -0.0000000
 C    7.2774103   -1.2279176    0.0000000  0.00    0.0002629    0.0007670   -0.0000000
 C    5.8413643   -1.2181312    0.0000000  0.00   -0.0001502   -0.0017645   -0.0000000
 C    7.9260230   -2.4651761    0.0000000  0.00   -0.0003387   -0.0013012   -0.0000000
 C    5.0757434   -2.3953808    0.0000000  0.00    0.0005089    0.0008550   -0.0000000
 C    7.9646079    0.0000000    0.0000000  0.00   -0.0012030   -0.0000000   -0.0000000
 C    5.1634602    0.0000000    0.0000000  0.00   -0.0035342   -0.0000000   -0.0000000
 C    3.5608720   -4.7439003    0.0000000  0.00    0.0016503   -0.0007031   -0.0000000
 C    2.8355169   -5.9508674    0.0000000  0.00    0.0000866   -0.0001512   -0.0000000
 C    3.5168717   -7.2003458    0.0000000  0.00    0.0011401    0.0006305   -0.0000000
 C    3.6382721   -2.3493020    0.0000000  0.00    0.0009080   -0.0002916   -0.0000000
 C    2.8615376   -3.5021840    0.0000000  0.00    0.0012290    0.0000706   -0.0000000
 C    3.7741320    0.0000000    0.0000000  0.00    0.0023216   -0.0000000   -0.0000000
 C    2.9762866   -1.1233048    0.0000000  0.00   -0.0005796   -0.0004847   -0.0000000
 C    1.4147416   -5.8625451    0.0000000  0.00    0.0004098   -0.0006360   -0.0000000
 C    0.7124731   -7.0843562    0.0000000  0.00    0.0008974   -0.0019596   -0.0000000
 C    2.7618131   -8.3736011    0.0000000  0.00    0.0005215   -0.0011568   -0.0000000
 C    1.4053473   -8.3101246    0.0000000  0.00    0.0014063    0.0012266   -0.0000000
 C    1.4195784   -3.3404595    0.0000000  0.00    0.0010010   -0.0001442   -0.0000000
 C    0.7097257   -4.5834558    0.0000000  0.00    0.0004907   -0.0009065   -0.0000000
 C    1.5794285   -0.7996701    0.0000000  0.00   -0.0005343    0.0002124   -0.0000000
 C    0.7337435   -2.0039377    0.0000000  0.00    0.0014770   -0.0001983   -0.0000000
 H    8.8745325   -7.3505433    0.0000000  0.00    0.0024516    0.0006658   -0.0000000
 H    7.5733036   -9.4680307    0.0000000  0.00    0.0002670    0.0000147   -0.0000000
 H    5.1440531   -9.4229689    0.0000000  0.00   -0.0010475   -0.0009856   -0.0000000
 H    8.9278877   -4.9321917    0.0000000  0.00    0.0000764    0.0001658   -0.0000000
 H    9.0107834   -2.5124774    0.0000000  0.00    0.0013760    0.0000314   -0.0000000
 H    9.0492680    0.0000000    0.0000000  0.00    0.0014370   -0.0000000   -0.0000000
 H    3.2342366   -9.3500308    0.0000000  0.00   -0.0004110   -0.0007456   -0.0000000
 H    0.8707680   -9.2502430    0.0000000  0.00   -0.0006625    0.0005429   -0.0000000
 C   -7.1197028    6.0921229    0.0000000  0.00    0.0002143   -0.0001447   -0.0000000
 C   -5.6835005    6.0531553    0.0000000  0.00   -0.0015008    0.0011479   -0.0000000
 C   -7.7867800    7.3383957    0.0000000  0.00   -0.0008604   -0.0019495   -0.0000000
 C   -4.9618283    7.2641121    0.0000000  0.00    0.0001827    0.0009994   -0.0000000
 C   -7.0642960    8.5068956    0.0000000  0.00   -0.0000647    0.0011704   -0.0000000
 C   -5.6717020    8.4742307    0.0000000  0.00   -0.0011368   -0.0015587   -0.0000000
 C   -7.1918703    3.6611649    0.0000000  0.00    0.0004971   -0.0019522   -0.0000000
 C   -5.7487281    3.6254369    0.0000000  0.00    0.0003066    0.0015418   -0.0000000
 C   -7.8407793    4.8972525    0.0000000  0.00   -0.0025661    0.0008357   -0.0000000
 C   -4.9946161    4.8072451    0.0000000  0.00    0.0009105   -0.0015277   -0.0000000
 C   -7.2774103    1.2279176    0.0000000  0.00   -0.0002629   -0.0007670   -0.0000000
 C   -5.8413643    1.2181312    0.0000000  0.00    0.0001502    0.0017645   -0.0000000
 C   -7.9260230    2.4651761    0.0000000  0.00    0.0003387    0.0013012   -0.0000000
 C   -5.0757434    2.3953808    0.0000000  0.00   -0.0005089   -0.0008550   -0.0000000
 C   -7.9646079    0.0000000    0.0000000  0.00    0.0012030   -0.0000000   -0.0000000
 C   -5.1634602    0.0000000    0.0000000  0.00    0.0035342   -0.0000000   -0.0000000
 C   -3.5608720    4.7439003    0.0000000  0.00   -0.0016503    0.0007031   -0.0000000
 C   -2.8355169    5.9508674    0.0000000  0.00   -0.0000866    0.0001512   -0.0000000
 C   -3.5168717    7.2003458    0.0000000  0.00   -0.0011401   -0.0006305   -0.0000000
 C   -3.6382721    2.3493020    0.0000000  0.00   -0.0009080    0.0002916   -0.0000000
 C   -2.8615376    3.5021840    0.0000000  0.00   -0.0012290   -0.0000706   -0.0000000
 C   -3.7741320    0.0000000    0.0000000  0.00   -0.0023216   -0.0000000   -0.0000000
 C   -2.9762866    1.1233048    0.0000000  0.00    0.0005796    0.0004847   -0.0000000
 C   -1.4147416    5.8625451    0.0000000  0.00   -0.0004098    0.0006360   -0.0000000
 C   -0.7124731    7.0843562    0.0000000  0.00   -0.0008974    0.0019596   -0.0000000
 C   -2.7618131    8.3736011    0.0000000  0.00   -0.0005215    0.0011568   -0.0000000
 C   -1.4053473    8.3101246    0.0000000  0.00   -0.0014063   -0.0012266   -0.0000000
 C   -1.4195784    3.3404595    0.0000000  0.00   -0.0010010    0.0001442   -0.0000000
 C   -0.7097257    4.5834558    0.0000000  0.00   -0.0004907    0.0009065   -0.0000000
 C   -1.5794285    0.7996701    0.0000000  0.00    0.0005343   -0.0002124   -0.0000000
 C   -0.7337435    2.0039377    0.0000000  0.00   -0.0014770    0.0001983   -0.0000000
 H   -8.8745325    7.3505433    0.0000000  0.00   -0.0024516   -0.0006658   -0.0000000
 H   -7.5733036    9.4680307    0.0000000  0.00   -0.0002670   -0.0000147   -0.0000000
 H   -5.1440531    9.4229689    0.0000000  0.00    0.0010475    0.0009856   -0.0000000
 H   -8.9278877    4.9321917    0.0000000  0.00   -0.0000764   -0.0001658   -0.0000000
 H   -9.0107834    2.5124774    0.0000000  0.00   -0.0013760   -0.0000314   -0.0000000
 H   -9.0492680    0.0000000    0.0000000  0.00   -0.0014370   -0.0000000   -0.0000000
 H   -3.2342366    9.3500308    0.0000000  0.00    0.0004110    0.0007456   -0.0000000
 H   -0.8707680    9.2502430    0.0000000  0.00    0.0006625   -0.0005429   -0.0000000
 C    7.1197028    6.0921229    0.0000000  0.00   -0.0002143   -0.0001447   -0.0000000
 C    5.6835005    6.0531553    0.0000000  0.00    0.0015008    0.0011479   -0.0000000
 C    7.7867800    7.3383957    0.0000000  0.00    0.0008604   -0.0019495   -0.0000000
 C    4.9618283    7.2641121    0.0000000  0.00   -0.0001827    0.0009994   -0.0000000
 C    7.0642960    8.5068956    0.0000000  0.00    0.0000647    0.0011704   -0.0000000
 C    5.6717020    8.4742307    0.0000000  0.00    0.0011368   -0.0015587   -0.0000000
 C    7.1918703    3.6611649    0.0000000  0.00   -0.0004971   -0.0019522   -0.0000000
 C    5.7487281    3.6254369    0.0000000  0.00   -0.0003066    0.0015418   -0.0000000
 C    7.8407793    4.8972525    0.0000000  0.00    0.0025661    0.0008357   -0.0000000
 C    4.9946161    4.8072451    0.0000000  0.00   -0.0009105   -0.0015277   -0.0000000
 C    7.2774103    1.2279176    0.0000000  0.00    0.0002629   -0.0007670   -0.0000000
 C    5.8413643    1.2181312    0.0000000  0.00   -0.0001502    0.0017645   -0.0000000
 C    7.9260230    2.4651761    0.0000000  0.00   -0.0003387    0.0013012   -0.0000000
 C    5.0757434    2.3953808    0.0000000  0.00    0.0005089   -0.0008550   -0.0000000
 C    3.5608720    4.7439003    0.0000000  0.00    0.0016503    0.0007031   -0.0000000
 C    2.8355169    5.9508674    0.0000000  0.00    0.0000866    0.0001512   -0.0000000
 C    3.5168717    7.2003458    0.0000000  0.00    0.0011401   -0.0006305   -0.0000000
 C    3.6382721    2.3493020    0.0000000  0.00    0.0009080    0.0002916   -0.0000000
 C    2.8615376    3.5021840    0.0000000  0.00    0.0012290   -0.0000706   -0.0000000
 C    2.9762866    1.1233048    0.0000000  0.00   -0.0005796    0.0004847   -0.0000000
 C    1.4147416    5.8625451    0.0000000  0.00    0.0004098    0.0006360   -0.0000000
 C    0.7124731    7.0843562    0.0000000  0.00    0.0008974    0.0019596   -0.0000000
 C    2.7618131    8.3736011    0.0000000  0.00    0.0005215    0.0011568   -0.0000000
 C    1.4053473    8.3101246    0.0000000  0.00    0.0014063   -0.0012266   -0.0000000
 C    1.4195784    3.3404595    0.0000000  0.00    0.0010010    0.0001442   -0.0000000
 C    0.7097257    4.5834558    0.0000000  0.00    0.0004907    0.0009065   -0.0000000
 C    1.5794285    0.7996701    0.0000000  0.00   -0.0005343   -0.0002124   -0.0000000
 C    0.7337435    2.0039377    0.0000000  0.00    0.0014770    0.0001983   -0.0000000
 H    8.8745325    7.3505433    0.0000000  0.00    0.0024516   -0.0006658   -0.0000000
 H    7.5733036    9.4680307    0.0000000  0.00    0.0002670   -0.0000147   -0.0000000
 H    5.1440531    9.4229689    0.0000000  0.00   -0.0010475    0.0009856   -0.0000000
 H    8.9278877    4.9321917    0.0000000  0.00    0.0000764   -0.0001658   -0.0000000
 H    9.0107834    2.5124774    0.0000000  0.00    0.0013760   -0.0000314   -0.0000000
 H    3.2342366    9.3500308    0.0000000  0.00   -0.0004110    0.0007456   -0.0000000
 H    0.8707680    9.2502430    0.0000000  0.00   -0.0006625   -0.0005429   -0.0000000
 C   -7.1197028   -6.0921229    0.0000000  0.00    0.0002143    0.0001447   -0.0000000
 C   -5.6835005   -6.0531553    0.0000000  0.00   -0.0015008   -0.0011479   -0.0000000
 C   -7.7867800   -7.3383957    0.0000000  0.00   -0.0008604    0.0019495   -0.0000000
 C   -4.9618283   -7.2641121    0.0000000  0.00    0.0001827   -0.0009994   -0.0000000
 C   -7.0642960   -8.5068956    0.0000000  0.00   -0.0000647   -0.0011704   -0.0000000
 C   -5.6717020   -8.4742307    0.0000000  0.00   -0.0011368    0.0015587   -0.0000000
 C   -7.1918703   -3.6611649    0.0000000  0.00    0.0004971    0.0019522   -0.0000000
 C   -5.7487281   -3.6254369    0.0000000  0.00    0.0003066   -0.0015418   -0.0000000
 C   -7.8407793   -4.8972525    0.0000000  0.00   -0.0025661   -0.0008357   -0.0000000
 C   -4.9946161   -4.8072451    0.0000000  0.00    0.0009105    0.0015277   -0.0000000
 C   -7.2774103   -1.2279176    0.0000000  0.00   -0.0002629    0.0007670   -0.0000000
 C   -5.8413643   -1.2181312    0.0000000  0.00    0.0001502   -0.0017645   -0.0000000
 C   -7.9260230   -2.4651761    0.0000000  0.00    0.0003387   -0.0013012   -0.0000000
 C   -5.0757434   -2.3953808    0.0000000  0.00   -0.0005089    0.0008550   -0.0000000
 C   -3.5608720   -4.7439003    0.0000000  0.00   -0.0016503   -0.0007031   -0.0000000
 C   -2.8355169   -5.9508674    0.0000000  0.00   -0.0000866   -0.0001512   -0.0000000
 C   -3.5168717   -7.2003458    0.0000000  0.00   -0.0011401    0.0006305   -0.0000000
 C   -3.6382721   -2.3493020    0.0000000  0.00   -0.0009080   -0.0002916   -0.0000000
 C   -2.8615376   -3.5021840    0.0000000  0.00   -0.0012290    0.0000706   -0.0000000
 C   -2.9762866   -1.1233048    0.0000000  0.00    0.0005796   -0.0004847   -0.0000000
 C   -1.4147416   -5.8625451    0.0000000  0.00   -0.0004098   -0.0006360   -0.0000000
 C   -0.7124731   -7.0843562    0.0000000  0.00   -0.0008974   -0.0019596   -0.0000000
 C   -2.7618131   -8.3736011    0.0000000  0.00   -0.0005215   -0.0011568   -0.0000000
 C   -1.4053473   -8.3101246    0.0000000  0.00   -0.0014063    0.0012266   -0.0000000
 C   -1.4195784   -3.3404595    0.0000000  0.00   -0.0010010   -0.0001442   -0.0000000
 C   -0.7097257   -4.5834558    0.0000000  0.00   -0.0004907   -0.0009065   -0.0000000
 C   -1.5794285   -0.7996701    0.0000000  0.00    0.0005343    0.0002124   -0.0000000
 C   -0.7337435   -2.0039377    0.0000000  0.00   -0.0014770   -0.0001983   -0.0000000
 H   -8.8745325   -7.3505433    0.0000000  0.00   -0.0024516    0.0006658   -0.0000000
 H   -7.5733036   -9.4680307    0.0000000  0.00   -0.0002670    0.0000147   -0.0000000
 H   -5.1440531   -9.4229689    0.0000000  0.00    0.0010475   -0.0009856   -0.0000000
 H   -8.9278877   -4.9321917    0.0000000  0.00   -0.0000764    0.0001658   -0.0000000
 H   -9.0107834   -2.5124774    0.0000000  0.00   -0.0013760    0.0000314   -0.0000000
 H   -3.2342366   -9.3500308    0.0000000  0.00    0.0004110   -0.0007456   -0.0000000
 H   -0.8707680   -9.2502430    0.0000000  0.00    0.0006625    0.0005429   -0.0000000
