148
 Energy =   -4513.3793960540
 C    7.1227226   -6.1030493    0.0000000  0.00   -0.0001523   -0.0014871   -0.0000000
 C    5.6891985   -6.0641215    0.0000000  0.00    0.0008245    0.0006684   -0.0000000
 C    7.7799424   -7.3524195    0.0000000  0.00   -0.0020520    0.0010017   -0.0000000
 C    4.9647194   -7.2699062    0.0000000  0.00   -0.0003549    0.0001036   -0.0000000
 C    7.0538328   -8.5227803    0.0000000  0.00   -0.0007375    0.0006439   -0.0000000
 C    5.6621822   -8.4875798    0.0000000  0.00   -0.0022185   -0.0002520   -0.0000000
 C    7.2098653   -3.6668214    0.0000000  0.00   -0.0010535    0.0009867   -0.0000000
 C    5.7647830   -3.6328739    0.0000000  0.00   -0.0011518   -0.0011349   -0.0000000
 C    7.8464727   -4.9064619    0.0000000  0.00    0.0007463   -0.0002138   -0.0000000
 C    5.0062438   -4.8106136    0.0000000  0.00   -0.0011545    0.0039684   -0.0000000
 C    7.3035267   -1.2283583    0.0000000  0.00   -0.0020984   -0.0005465   -0.0000000
 C    5.8656525   -1.2198040    0.0000000  0.00   -0.0006568    0.0014899   -0.0000000
 C    7.9413439   -2.4705949    0.0000000  0.00    0.0004545    0.0000611   -0.0000000
 C    5.0940048   -2.3978297    0.0000000  0.00    0.0005148   -0.0004849   -0.0000000
 C    7.9837894    0.0000000    0.0000000  0.00   -0.0006510   -0.0000000   -0.0000000
 C    5.1865277    0.0000000    0.0000000  0.00   -0.0005573   -0.0000000   -0.0000000
 C    3.5696205   -4.7391654    0.0000000  0.00    0.0008196   -0.0009398   -0.0000000
 C    2.8397185   -5.9416448    0.0000000  0.00   -0.0008681   -0.0006145   -0.0000000
 C    3.5184056   -7.1945134    0.0000000  0.00    0.0004681    0.0004578   -0.0000000
 C    3.6563976   -2.3481804    0.0000000  0.00   -0.0008902    0.0014856   -0.0000000
 C    2.8740787   -3.4983175    0.0000000  0.00   -0.0006037    0.0005539   -0.0000000
 C    3.7939738    0.0000000    0.0000000  0.00   -0.0000970   -0.0000000   -0.0000000
 C    2.9943327   -1.1216053    0.0000000  0.00    0.0017847   -0.0008493   -0.0000000
 C    1.4196895   -5.8479996    0.0000000  0.00    0.0004793   -0.0001327   -0.0000000
 C    0.7151766   -7.0693071    0.0000000  0.00    0.0000942   -0.0012046   -0.0000000
 C    2.7615566   -8.3601866    0.0000000  0.00    0.0002420    0.0007818   -0.0000000
 C    1.4010839   -8.2912593    0.0000000  0.00   -0.0005819   -0.0002026   -0.0000000
 C    1.4253847   -3.3332410    0.0000000  0.00    0.0006262    0.0000911   -0.0000000
 C    0.7173696   -4.5674392    0.0000000  0.00   -0.0015563   -0.0001536   -0.0000000
 C    1.5821663   -0.7927548    0.0000000  0.00   -0.0002677    0.0009983   -0.0000000
 C    0.7375634   -1.9865320    0.0000000  0.00    0.0005036   -0.0003485   -0.0000000
 H    8.8638233   -7.3736574    0.0000000  0.00   -0.0010364    0.0001407   -0.0000000
 H    7.5634124   -9.4795187    0.0000000  0.00   -0.0007566    0.0009696   -0.0000000
 H    5.1299095   -9.4271511    0.0000000  0.00    0.0001584   -0.0010313   -0.0000000
 H    8.9305019   -4.9452358    0.0000000  0.00   -0.0002621    0.0003429   -0.0000000
 H    9.0248381   -2.5183381    0.0000000  0.00   -0.0006187    0.0006346   -0.0000000
 H    9.0683167    0.0000000    0.0000000  0.00   -0.0008762   -0.0000000   -0.0000000
 H    3.2336066   -9.3308699    0.0000000  0.00    0.0000882    0.0008124   -0.0000000
 H    0.8620334   -9.2224927    0.0000000  0.00   -0.0008086   -0.0006535   -0.0000000
 C   -7.1227226    6.1030493    0.0000000  0.00    0.0001523    0.0014871   -0.0000000
 C   -5.6891985    6.0641215    0.0000000  0.00   -0.0008245   -0.0006684   -0.0000000
 C   -7.7799424    7.3524195    0.0000000  0.00    0.0020520   -0.0010017   -0.0000000
 C   -4.9647194    7.2699062    0.0000000  0.00    0.0003549   -0.0001036   -0.0000000
 C   -7.0538328    8.5227803    0.0000000  0.00    0.0007375   -0.0006439   -0.0000000
 C   -5.6621822    8.4875798    0.0000000  0.00    0.0022185    0.0002520   -0.0000000
 C   -7.2098653    3.6668214    0.0000000  0.00    0.0010535   -0.0009867   -0.0000000
 C   -5.7647830    3.6328739    0.0000000  0.00    0.0011518    0.0011349   -0.0000000
 C   -7.8464727    4.9064619    0.0000000  0.00   -0.0007463    0.0002138   -0.0000000
 C   -5.0062438    4.8106136    0.0000000  0.00    0.0011545   -0.0039684   -0.0000000
 C   -7.3035267    1.2283583    0.0000000  0.00    0.0020984    0.0005465   -0.0000000
 C   -5.8656525    1.2198040    0.0000000  0.00    0.0006568   -0.0014899   -0.0000000
 C   -7.9413439    2.4705949    0.0000000  0.00   -0.0004545   -0.0000611   -0.0000000
 C   -5.0940048    2.3978297    0.0000000  0.00   -0.0005148    0.0004849   -0.0000000
 C   -7.9837894    0.0000000    0.0000000  0.00    0.0006510   -0.0000000   -0.0000000
 C   -5.1865277    0.0000000    0.0000000  0.00    0.0005573   -0.0000000   -0.0000000
 C   -3.5696205    4.7391654    0.0000000  0.00   -0.0008196    0.0009398   -0.0000000
 C   -2.8397185    5.9416448    0.0000000  0.00    0.0008681    0.0006145   -0.0000000
 C   -3.5184056    7.1945134    0.0000000  0.00   -0.0004681   -0.0004578   -0.0000000
 C   -3.6563976    2.3481804    0.0000000  0.00    0.0008902   -0.0014856   -0.0000000
 C   -2.8740787    3.4983175    0.0000000  0.00    0.0006037   -0.0005539   -0.0000000
 C   -3.7939738    0.0000000    0.0000000  0.00    0.0000970   -0.0000000   -0.0000000
 C   -2.9943327    1.1216053    0.0000000  0.00   -0.0017847    0.0008493   -0.0000000
 C   -1.4196895    5.8479996    0.0000000  0.00   -0.0004793    0.0001327   -0.0000000
 C   -0.7151766    7.0693071    0.0000000  0.00   -0.0000942    0.0012046   -0.0000000
 C   -2.7615566    8.3601866    0.0000000  0.00   -0.0002420   -0.0007818   -0.0000000
 C   -1.4010839    8.2912593    0.0000000  0.00    0.0005819    0.0002026   -0.0000000
 C   -1.4253847    3.3332410    0.0000000  0.00   -0.0006262   -0.0000911   -0.0000000
 C   -0.7173696    4.5674392    0.0000000  0.00    0.0015563    0.0001536   -0.0000000
 C   -1.5821663    0.7927548    0.0000000  0.00    0.0002677   -0.0009983   -0.0000000
 C   -0.7375634    1.9865320    0.0000000  0.00   -0.0005036    0.0003485   -0.0000000
 H   -8.8638233    7.3736574    0.0000000  0.00    0.0010364   -0.0001407   -0.0000000
 H   -7.5634124    9.4795187    0.0000000  0.00    0.0007566   -0.0009696   -0.0000000
 H   -5.1299095    9.4271511    0.0000000  0.00   -0.0001584    0.0010313   -0.0000000
 H   -8.9305019    4.9452358    0.0000000  0.00    0.0002621   -0.0003429   -0.0000000
 H   -9.0248381    2.5183381    0.0000000  0.00    0.0006187   -0.0006346   -0.0000000
 H   -9.0683167    0.0000000    0.0000000  0.00    0.0008762   -0.0000000   -0.0000000
 H   -3.2336066    9.3308699    0.0000000  0.00   -0.0000882   -0.0008124   -0.0000000
 H   -0.8620334    9.2224927    0.0000000  0.00    0.0008086    0.0006535   -0.0000000
 C    7.1227226    6.1030493    0.0000000  0.00   -0.0001523    0.0014871   -0.0000000
 C    5.6891985    6.0641215    0.0000000  0.00    0.0008245   -0.0006684   -0.0000000
 C    7.7799424    7.3524195    0.0000000  0.00   -0.0020520   -0.0010017   -0.0000000
 C    4.9647194    7.2699062    0.0000000  0.00   -0.0003549   -0.0001036   -0.0000000
 C    7.0538328    8.5227803    0.0000000  0.00   -0.0007375   -0.0006439   -0.0000000
 C    5.6621822    8.4875798    0.0000000  0.00   -0.0022185    0.0002520   -0.0000000
 C    7.2098653    3.6668214    0.0000000  0.00   -0.0010535   -0.0009867   -0.0000000
 C    5.7647830    3.6328739    0.0000000  0.00   -0.0011518    0.0011349   -0.0000000
 C    7.8464727    4.9064619    0.0000000  0.00    0.0007463    0.0002138   -0.0000000
 C    5.0062438    4.8106136    0.0000000  0.00   -0.0011545   -0.0039684   -0.0000000
 C    7.3035267    1.2283583    0.0000000  0.00   -0.0020984    0.0005465   -0.0000000
 C    5.8656525    1.2198040    0.0000000  0.00   -0.0006568   -0.0014899   -0.0000000
 C    7.9413439    2.4705949    0.0000000  0.00    0.0004545   -0.0000611   -0.0000000
 C    5.0940048    2.3978297    0.0000000  0.00    0.0005148    0.0004849   -0.0000000
 C    3.5696205    4.7391654    0.0000000  0.00    0.0008196    0.0009398   -0.0000000
 C    2.8397185    5.9416448    0.0000000  0.00   -0.0008681    0.0006145   -0.0000000
 C    3.5184056    7.1945134    0.0000000  0.00    0.0004681   -0.0004578   -0.0000000
 C    3.6563976    2.3481804    0.0000000  0.00   -0.0008902   -0.0014856   -0.0000000
 C    2.8740787    3.4983175    0.0000000  0.00   -0.0006037   -0.0005539   -0.0000000
 C    2.9943327    1.1216053    0.0000000  0.00    0.0017847    0.0008493   -0.0000000
 C    1.4196895    5.8479996    0.0000000  0.00    0.0004793    0.0001327   -0.0000000
 C    0.7151766    7.0693071    0.0000000  0.00    0.0000942    0.0012046   -0.0000000
 C    2.7615566    8.3601866    0.0000000  0.00    0.0002420   -0.0007818   -0.0000000
 C    1.4010839    8.2912593    0.0000000  0.00   -0.0005819    0.0002026   -0.0000000
 C    1.4253847    3.3332410    0.0000000  0.00    0.0006262   -0.0000911   -0.0000000
 C    0.7173696    4.5674392    0.0000000  0.00   -0.0015563    0.0001536   -0.0000000
 C    1.5821663    0.7927548    0.0000000  0.00   -0.0002677   -0.0009983   -0.0000000
 C    0.7375634    1.9865320    0.0000000  0.00    0.0005036    0.0003485   -0.0000000
 H    8.8638233    7.3736574    0.0000000  0.00   -0.0010364   -0.0001407   -0.0000000
 H    7.5634124    9.4795187    0.0000000  0.00   -0.0007566   -0.0009696   -0.0000000
 H    5.1299095    9.4271511    0.0000000  0.00    0.0001584    0.0010313   -0.0000000
 H    8.9305019    4.9452358    0.0000000  0.00   -0.0002621   -0.0003429   -0.0000000
 H    9.0248381    2.5183381    0.0000000  0.00   -0.0006187   -0.0006346   -0.0000000
 H    3.2336066    9.3308699    0.0000000  0.00    0.0000882   -0.0008124   -0.0000000
 H    0.8620334    9.2224927    0.0000000  0.00   -0.0008086    0.0006535   -0.0000000
 C   -7.1227226   -6.1030493    0.0000000  0.00    0.0001523   -0.0014871   -0.0000000
 C   -5.6891985   -6.0641215    0.0000000  0.00   -0.0008245    0.0006684   -0.0000000
 C   -7.7799424   -7.3524195    0.0000000  0.00    0.0020520    0.0010017   -0.0000000
 C   -4.9647194   -7.2699062    0.0000000  0.00    0.0003549    0.0001036   -0.0000000
 C   -7.0538328   -8.5227803    0.0000000  0.00    0.0007375    0.0006439   -0.0000000
 C   -5.6621822   -8.4875798    0.0000000  0.00    0.0022185   -0.0002520   -0.0000000
 C   -7.2098653   -3.6668214    0.0000000  0.00    0.0010535    0.0009867   -0.0000000
 C   -5.7647830   -3.6328739    0.0000000  0.00    0.0011518   -0.0011349   -0.0000000
 C   -7.8464727   -4.9064619    0.0000000  0.00   -0.0007463   -0.0002138   -0.0000000
 C   -5.0062438   -4.8106136    0.0000000  0.00    0.0011545    0.0039684   -0.0000000
 C   -7.3035267   -1.2283583    0.0000000  0.00    0.0020984   -0.0005465   -0.0000000
 C   -5.8656525   -1.2198040    0.0000000  0.00    0.0006568    0.0014899   -0.0000000
 C   -7.9413439   -2.4705949    0.0000000  0.00   -0.0004545    0.0000611   -0.0000000
 C   -5.0940048   -2.3978297    0.0000000  0.00   -0.0005148   -0.0004849   -0.0000000
 C   -3.5696205   -4.7391654    0.0000000  0.00   -0.0008196   -0.0009398   -0.0000000
 C   -2.8397185   -5.9416448    0.0000000  0.00    0.0008681   -0.0006145   -0.0000000
 C   -3.5184056   -7.1945134    0.0000000  0.00   -0.0004681    0.0004578   -0.0000000
 C   -3.6563976   -2.3481804    0.0000000  0.00    0.0008902    0.0014856   -0.0000000
 C   -2.8740787   -3.4983175    0.0000000  0.00    0.0006037    0.0005539   -0.0000000
 C   -2.9943327   -1.1216053    0.0000000  0.00   -0.0017847   -0.0008493   -0.0000000
 C   -1.4196895   -5.8479996    0.0000000  0.00   -0.0004793   -0.0001327   -0.0000000
 C   -0.7151766   -7.0693071    0.0000000  0.00   -0.0000942   -0.0012046   -0.0000000
 C   -2.7615566   -8.3601866    0.0000000  0.00   -0.0002420    0.0007818   -0.0000000
 C   -1.4010839   -8.2912593    0.0000000  0.00    0.0005819   -0.0002026   -0.0000000
 C   -1.4253847   -3.3332410    0.0000000  0.00   -0.0006262    0.0000911   -0.0000000
 C   -0.7173696   -4.5674392    0.0000000  0.00    0.0015563   -0.0001536   -0.0000000
 C   -1.5821663   -0.7927548    0.0000000  0.00    0.0002677    0.0009983   -0.0000000
 C   -0.7375634   -1.9865320    0.0000000  0.00   -0.0005036   -0.0003485   -0.0000000
 H   -8.8638233   -7.3736574    0.0000000  0.00    0.0010364    0.0001407   -0.0000000
 H   -7.5634124   -9.4795187    0.0000000  0.00    0.0007566    0.0009696   -0.0000000
 H   -5.1299095   -9.4271511    0.0000000  0.00   -0.0001584   -0.0010313   -0.0000000
 H   -8.9305019   -4.9452358    0.0000000  0.00    0.0002621    0.0003429   -0.0000000
 H   -9.0248381   -2.5183381    0.0000000  0.00    0.0006187    0.0006346   -0.0000000
 H   -3.2336066   -9.3308699    0.0000000  0.00   -0.0000882    0.0008124   -0.0000000
 H   -0.8620334   -9.2224927    0.0000000  0.00    0.0008086   -0.0006535   -0.0000000
