148
 Energy =   -4513.2395607250
 C    7.1246522   -6.1001067    0.0000000  0.00   -0.0007496    0.0004215   -0.0000000
 C    5.6904057   -6.0615199    0.0000000  0.00   -0.0002026    0.0000535   -0.0000000
 C    7.7882797   -7.3490719    0.0000000  0.00    0.0012903    0.0009423   -0.0000000
 C    4.9661497   -7.2730228    0.0000000  0.00    0.0006060    0.0012637   -0.0000000
 C    7.0644723   -8.5165966    0.0000000  0.00   -0.0003105    0.0003422   -0.0000000
 C    5.6708166   -8.4835486    0.0000000  0.00    0.0005728    0.0004628   -0.0000000
 C    7.1991220   -3.6682283    0.0000000  0.00   -0.0002473    0.0001101   -0.0000000
 C    5.7581169   -3.6350501    0.0000000  0.00   -0.0005981    0.0008640   -0.0000000
 C    7.8456429   -4.9033237    0.0000000  0.00   -0.0002476   -0.0005732   -0.0000000
 C    5.0046938   -4.8153727    0.0000000  0.00   -0.0010350    0.0005542   -0.0000000
 C    7.2821710   -1.2318153    0.0000000  0.00    0.0000789   -0.0004996   -0.0000000
 C    5.8438526   -1.2237746    0.0000000  0.00   -0.0008512    0.0001288   -0.0000000
 C    7.9305416   -2.4647389    0.0000000  0.00   -0.0005016   -0.0002320   -0.0000000
 C    5.0842915   -2.3990305    0.0000000  0.00    0.0002784   -0.0008152   -0.0000000
 C    7.9675309    0.0000000    0.0000000  0.00    0.0005978   -0.0000000   -0.0000000
 C    5.1649938    0.0000000    0.0000000  0.00   -0.0000012   -0.0000000   -0.0000000
 C    3.5667501   -4.7529548    0.0000000  0.00    0.0001890   -0.0016325   -0.0000000
 C    2.8394819   -5.9507126    0.0000000  0.00    0.0009342    0.0012376   -0.0000000
 C    3.5202759   -7.2082548    0.0000000  0.00    0.0010089   -0.0004979   -0.0000000
 C    3.6467394   -2.3547569    0.0000000  0.00   -0.0002000    0.0002834   -0.0000000
 C    2.8679607   -3.5092521    0.0000000  0.00   -0.0000355    0.0003826   -0.0000000
 C    3.7760054    0.0000000    0.0000000  0.00    0.0003830   -0.0000000   -0.0000000
 C    2.9842056   -1.1332109    0.0000000  0.00    0.0007049   -0.0004107   -0.0000000
 C    1.4173236   -5.8617462    0.0000000  0.00    0.0002223    0.0001361   -0.0000000
 C    0.7133695   -7.0891833    0.0000000  0.00   -0.0006466    0.0006746   -0.0000000
 C    2.7638770   -8.3727679    0.0000000  0.00   -0.0001687   -0.0006107   -0.0000000
 C    1.4028158   -8.3083706    0.0000000  0.00    0.0002491   -0.0011543   -0.0000000
 C    1.4302078   -3.3549415    0.0000000  0.00    0.0013839    0.0009390   -0.0000000
 C    0.7167829   -4.5894913    0.0000000  0.00   -0.0021595   -0.0003845   -0.0000000
 C    1.5828875   -0.8370182    0.0000000  0.00    0.0000748   -0.0001608   -0.0000000
 C    0.7474395   -2.0005090    0.0000000  0.00   -0.0003337   -0.0003558   -0.0000000
 H    8.8747060   -7.3660469    0.0000000  0.00   -0.0006001    0.0013032   -0.0000000
 H    7.5719586   -9.4776200    0.0000000  0.00    0.0002248    0.0004709   -0.0000000
 H    5.1409707   -9.4316007    0.0000000  0.00   -0.0000758    0.0012752   -0.0000000
 H    8.9309202   -4.9388281    0.0000000  0.00   -0.0011828    0.0004452   -0.0000000
 H    9.0144946   -2.5080670    0.0000000  0.00   -0.0001326    0.0005419   -0.0000000
 H    9.0521292    0.0000000    0.0000000  0.00   -0.0001045   -0.0000000   -0.0000000
 H    3.2283049   -9.3559784    0.0000000  0.00   -0.0005794   -0.0003088   -0.0000000
 H    0.8725887   -9.2559251    0.0000000  0.00   -0.0008004    0.0002520   -0.0000000
 C   -7.1246522    6.1001067    0.0000000  0.00    0.0007496   -0.0004215   -0.0000000
 C   -5.6904057    6.0615199    0.0000000  0.00    0.0002026   -0.0000535   -0.0000000
 C   -7.7882797    7.3490719    0.0000000  0.00   -0.0012903   -0.0009423   -0.0000000
 C   -4.9661497    7.2730228    0.0000000  0.00   -0.0006060   -0.0012637   -0.0000000
 C   -7.0644723    8.5165966    0.0000000  0.00    0.0003105   -0.0003422   -0.0000000
 C   -5.6708166    8.4835486    0.0000000  0.00   -0.0005728   -0.0004628   -0.0000000
 C   -7.1991220    3.6682283    0.0000000  0.00    0.0002473   -0.0001101   -0.0000000
 C   -5.7581169    3.6350501    0.0000000  0.00    0.0005981   -0.0008640   -0.0000000
 C   -7.8456429    4.9033237    0.0000000  0.00    0.0002476    0.0005732   -0.0000000
 C   -5.0046938    4.8153727    0.0000000  0.00    0.0010350   -0.0005542   -0.0000000
 C   -7.2821710    1.2318153    0.0000000  0.00   -0.0000789    0.0004996   -0.0000000
 C   -5.8438526    1.2237746    0.0000000  0.00    0.0008512   -0.0001288   -0.0000000
 C   -7.9305416    2.4647389    0.0000000  0.00    0.0005016    0.0002320   -0.0000000
 C   -5.0842915    2.3990305    0.0000000  0.00   -0.0002784    0.0008152   -0.0000000
 C   -7.9675309    0.0000000    0.0000000  0.00   -0.0005978   -0.0000000   -0.0000000
 C   -5.1649938    0.0000000    0.0000000  0.00    0.0000012   -0.0000000   -0.0000000
 C   -3.5667501    4.7529548    0.0000000  0.00   -0.0001890    0.0016325   -0.0000000
 C   -2.8394819    5.9507126    0.0000000  0.00   -0.0009342   -0.0012376   -0.0000000
 C   -3.5202759    7.2082548    0.0000000  0.00   -0.0010089    0.0004979   -0.0000000
 C   -3.6467394    2.3547569    0.0000000  0.00    0.0002000   -0.0002834   -0.0000000
 C   -2.8679607    3.5092521    0.0000000  0.00    0.0000355   -0.0003826   -0.0000000
 C   -3.7760054    0.0000000    0.0000000  0.00   -0.0003830   -0.0000000   -0.0000000
 C   -2.9842056    1.1332109    0.0000000  0.00   -0.0007049    0.0004107   -0.0000000
 C   -1.4173236    5.8617462    0.0000000  0.00   -0.0002223   -0.0001361   -0.0000000
 C   -0.7133695    7.0891833    0.0000000  0.00    0.0006466   -0.0006746   -0.0000000
 C   -2.7638770    8.3727679    0.0000000  0.00    0.0001687    0.0006107   -0.0000000
 C   -1.4028158    8.3083706    0.0000000  0.00   -0.0002491    0.0011543   -0.0000000
 C   -1.4302078    3.3549415    0.0000000  0.00   -0.0013839   -0.0009390   -0.0000000
 C   -0.7167829    4.5894913    0.0000000  0.00    0.0021595    0.0003845   -0.0000000
 C   -1.5828875    0.8370182    0.0000000  0.00   -0.0000748    0.0001608   -0.0000000
 C   -0.7474395    2.0005090    0.0000000  0.00    0.0003337    0.0003558   -0.0000000
 H   -8.8747060    7.3660469    0.0000000  0.00    0.0006001   -0.0013032   -0.0000000
 H   -7.5719586    9.4776200    0.0000000  0.00   -0.0002248   -0.0004709   -0.0000000
 H   -5.1409707    9.4316007    0.0000000  0.00    0.0000758   -0.0012752   -0.0000000
 H   -8.9309202    4.9388281    0.0000000  0.00    0.0011828   -0.0004452   -0.0000000
 H   -9.0144946    2.5080670    0.0000000  0.00    0.0001326   -0.0005419   -0.0000000
 H   -9.0521292    0.0000000    0.0000000  0.00    0.0001045   -0.0000000   -0.0000000
 H   -3.2283049    9.3559784    0.0000000  0.00    0.0005794    0.0003088   -0.0000000
 H   -0.8725887    9.2559251    0.0000000  0.00    0.0008004   -0.0002520   -0.0000000
 C    7.1246522    6.1001067    0.0000000  0.00   -0.0007496   -0.0004215   -0.0000000
 C    5.6904057    6.0615199    0.0000000  0.00   -0.0002026   -0.0000535   -0.0000000
 C    7.7882797    7.3490719    0.0000000  0.00    0.0012903   -0.0009423   -0.0000000
 C    4.9661497    7.2730228    0.0000000  0.00    0.0006060   -0.0012637   -0.0000000
 C    7.0644723    8.5165966    0.0000000  0.00   -0.0003105   -0.0003422   -0.0000000
 C    5.6708166    8.4835486    0.0000000  0.00    0.0005728   -0.0004628   -0.0000000
 C    7.1991220    3.6682283    0.0000000  0.00   -0.0002473   -0.0001101   -0.0000000
 C    5.7581169    3.6350501    0.0000000  0.00   -0.0005981   -0.0008640   -0.0000000
 C    7.8456429    4.9033237    0.0000000  0.00   -0.0002476    0.0005732   -0.0000000
 C    5.0046938    4.8153727    0.0000000  0.00   -0.0010350   -0.0005542   -0.0000000
 C    7.2821710    1.2318153    0.0000000  0.00    0.0000789    0.0004996   -0.0000000
 C    5.8438526    1.2237746    0.0000000  0.00   -0.0008512   -0.0001288   -0.0000000
 C    7.9305416    2.4647389    0.0000000  0.00   -0.0005016    0.0002320   -0.0000000
 C    5.0842915    2.3990305    0.0000000  0.00    0.0002784    0.0008152   -0.0000000
 C    3.5667501    4.7529548    0.0000000  0.00    0.0001890    0.0016325   -0.0000000
 C    2.8394819    5.9507126    0.0000000  0.00    0.0009342   -0.0012376   -0.0000000
 C    3.5202759    7.2082548    0.0000000  0.00    0.0010089    0.0004979   -0.0000000
 C    3.6467394    2.3547569    0.0000000  0.00   -0.0002000   -0.0002834   -0.0000000
 C    2.8679607    3.5092521    0.0000000  0.00   -0.0000355   -0.0003826   -0.0000000
 C    2.9842056    1.1332109    0.0000000  0.00    0.0007049    0.0004107   -0.0000000
 C    1.4173236    5.8617462    0.0000000  0.00    0.0002223   -0.0001361   -0.0000000
 C    0.7133695    7.0891833    0.0000000  0.00   -0.0006466   -0.0006746   -0.0000000
 C    2.7638770    8.3727679    0.0000000  0.00   -0.0001687    0.0006107   -0.0000000
 C    1.4028158    8.3083706    0.0000000  0.00    0.0002491    0.0011543   -0.0000000
 C    1.4302078    3.3549415    0.0000000  0.00    0.0013839   -0.0009390   -0.0000000
 C    0.7167829    4.5894913    0.0000000  0.00   -0.0021595    0.0003845   -0.0000000
 C    1.5828875    0.8370182    0.0000000  0.00    0.0000748    0.0001608   -0.0000000
 C    0.7474395    2.0005090    0.0000000  0.00   -0.0003337    0.0003558   -0.0000000
 H    8.8747060    7.3660469    0.0000000  0.00   -0.0006001   -0.0013032   -0.0000000
 H    7.5719586    9.4776200    0.0000000  0.00    0.0002248   -0.0004709   -0.0000000
 H    5.1409707    9.4316007    0.0000000  0.00   -0.0000758   -0.0012752   -0.0000000
 H    8.9309202    4.9388281    0.0000000  0.00   -0.0011828   -0.0004452   -0.0000000
 H    9.0144946    2.5080670    0.0000000  0.00   -0.0001326   -0.0005419   -0.0000000
 H    3.2283049    9.3559784    0.0000000  0.00   -0.0005794    0.0003088   -0.0000000
 H    0.8725887    9.2559251    0.0000000  0.00   -0.0008004   -0.0002520   -0.0000000
 C   -7.1246522   -6.1001067    0.0000000  0.00    0.0007496    0.0004215   -0.0000000
 C   -5.6904057   -6.0615199    0.0000000  0.00    0.0002026    0.0000535   -0.0000000
 C   -7.7882797   -7.3490719    0.0000000  0.00   -0.0012903    0.0009423   -0.0000000
 C   -4.9661497   -7.2730228    0.0000000  0.00   -0.0006060    0.0012637   -0.0000000
 C   -7.0644723   -8.5165966    0.0000000  0.00    0.0003105    0.0003422   -0.0000000
 C   -5.6708166   -8.4835486    0.0000000  0.00   -0.0005728    0.0004628   -0.0000000
 C   -7.1991220   -3.6682283    0.0000000  0.00    0.0002473    0.0001101   -0.0000000
 C   -5.7581169   -3.6350501    0.0000000  0.00    0.0005981    0.0008640   -0.0000000
 C   -7.8456429   -4.9033237    0.0000000  0.00    0.0002476   -0.0005732   -0.0000000
 C   -5.0046938   -4.8153727    0.0000000  0.00    0.0010350    0.0005542   -0.0000000
 C   -7.2821710   -1.2318153    0.0000000  0.00   -0.0000789   -0.0004996   -0.0000000
 C   -5.8438526   -1.2237746    0.0000000  0.00    0.0008512    0.0001288   -0.0000000
 C   -7.9305416   -2.4647389    0.0000000  0.00    0.0005016   -0.0002320   -0.0000000
 C   -5.0842915   -2.3990305    0.0000000  0.00   -0.0002784   -0.0008152   -0.0000000
 C   -3.5667501   -4.7529548    0.0000000  0.00   -0.0001890   -0.0016325   -0.0000000
 C   -2.8394819   -5.9507126    0.0000000  0.00   -0.0009342    0.0012376   -0.0000000
 C   -3.5202759   -7.2082548    0.0000000  0.00   -0.0010089   -0.0004979   -0.0000000
 C   -3.6467394   -2.3547569    0.0000000  0.00    0.0002000    0.0002834   -0.0000000
 C   -2.8679607   -3.5092521    0.0000000  0.00    0.0000355    0.0003826   -0.0000000
 C   -2.9842056   -1.1332109    0.0000000  0.00   -0.0007049   -0.0004107   -0.0000000
 C   -1.4173236   -5.8617462    0.0000000  0.00   -0.0002223    0.0001361   -0.0000000
 C   -0.7133695   -7.0891833    0.0000000  0.00    0.0006466    0.0006746   -0.0000000
 C   -2.7638770   -8.3727679    0.0000000  0.00    0.0001687   -0.0006107   -0.0000000
 C   -1.4028158   -8.3083706    0.0000000  0.00   -0.0002491   -0.0011543   -0.0000000
 C   -1.4302078   -3.3549415    0.0000000  0.00   -0.0013839    0.0009390   -0.0000000
 C   -0.7167829   -4.5894913    0.0000000  0.00    0.0021595   -0.0003845   -0.0000000
 C   -1.5828875   -0.8370182    0.0000000  0.00   -0.0000748   -0.0001608   -0.0000000
 C   -0.7474395   -2.0005090    0.0000000  0.00    0.0003337   -0.0003558   -0.0000000
 H   -8.8747060   -7.3660469    0.0000000  0.00    0.0006001    0.0013032   -0.0000000
 H   -7.5719586   -9.4776200    0.0000000  0.00   -0.0002248    0.0004709   -0.0000000
 H   -5.1409707   -9.4316007    0.0000000  0.00    0.0000758    0.0012752   -0.0000000
 H   -8.9309202   -4.9388281    0.0000000  0.00    0.0011828    0.0004452   -0.0000000
 H   -9.0144946   -2.5080670    0.0000000  0.00    0.0001326    0.0005419   -0.0000000
 H   -3.2283049   -9.3559784    0.0000000  0.00    0.0005794   -0.0003088   -0.0000000
 H   -0.8725887   -9.2559251    0.0000000  0.00    0.0008004    0.0002520   -0.0000000
