148
 Energy =   -4513.4488461890
 C    7.1221990   -6.1012576    0.0000000  0.00   -0.0011871   -0.0000992   -0.0000000
 C    5.6891859   -6.0600778    0.0000000  0.00    0.0001799   -0.0016388   -0.0000000
 C    7.7826277   -7.3479923    0.0000000  0.00   -0.0002050    0.0001185   -0.0000000
 C    4.9648168   -7.2690768    0.0000000  0.00    0.0005066    0.0014804   -0.0000000
 C    7.0581232   -8.5188366    0.0000000  0.00    0.0003451    0.0013900   -0.0000000
 C    5.6659473   -8.4824142    0.0000000  0.00   -0.0004129    0.0002262   -0.0000000
 C    7.2027764   -3.6664786    0.0000000  0.00   -0.0005037   -0.0004191   -0.0000000
 C    5.7584331   -3.6306887    0.0000000  0.00    0.0013462   -0.0017241   -0.0000000
 C    7.8459307   -4.9012420    0.0000000  0.00    0.0003630    0.0005708   -0.0000000
 C    5.0028830   -4.8097966    0.0000000  0.00   -0.0007031    0.0008222   -0.0000000
 C    7.2895591   -1.2284101    0.0000000  0.00    0.0007708    0.0004590   -0.0000000
 C    5.8533655   -1.2193019    0.0000000  0.00    0.0009851   -0.0001475   -0.0000000
 C    7.9356272   -2.4659716    0.0000000  0.00    0.0014487   -0.0008036   -0.0000000
 C    5.0857361   -2.3964036    0.0000000  0.00    0.0005075    0.0011968   -0.0000000
 C    7.9738108    0.0000000    0.0000000  0.00    0.0013833   -0.0000000   -0.0000000
 C    5.1753373    0.0000000    0.0000000  0.00    0.0037651   -0.0000000   -0.0000000
 C    3.5663295   -4.7412342    0.0000000  0.00    0.0016712   -0.0013075   -0.0000000
 C    2.8382731   -5.9457415    0.0000000  0.00   -0.0011565   -0.0005110   -0.0000000
 C    3.5182194   -7.1976146    0.0000000  0.00    0.0005255   -0.0000360   -0.0000000
 C    3.6483927   -2.3479483    0.0000000  0.00   -0.0009560    0.0012976   -0.0000000
 C    2.8690467   -3.5018549    0.0000000  0.00   -0.0036787   -0.0021869   -0.0000000
 C    3.7832633    0.0000000    0.0000000  0.00   -0.0056898   -0.0000000   -0.0000000
 C    2.9854352   -1.1234610    0.0000000  0.00   -0.0004292   -0.0011740   -0.0000000
 C    1.4176352   -5.8546164    0.0000000  0.00    0.0009534   -0.0000181   -0.0000000
 C    0.7141056   -7.0773181    0.0000000  0.00    0.0016398   -0.0010285   -0.0000000
 C    2.7627893   -8.3651698    0.0000000  0.00    0.0022116   -0.0013317   -0.0000000
 C    1.4029489   -8.2986929    0.0000000  0.00   -0.0028992   -0.0008950   -0.0000000
 C    1.4232658   -3.3385612    0.0000000  0.00    0.0023840    0.0015019   -0.0000000
 C    0.7140357   -4.5765204    0.0000000  0.00   -0.0029627    0.0001222   -0.0000000
 C    1.5820658   -0.7987178    0.0000000  0.00   -0.0010707    0.0007522   -0.0000000
 C    0.7363040   -1.9957618    0.0000000  0.00   -0.0014557    0.0009952   -0.0000000
 H    8.8666060   -7.3672304    0.0000000  0.00   -0.0009196    0.0012578   -0.0000000
 H    7.5664013   -9.4760995    0.0000000  0.00    0.0023388    0.0015415   -0.0000000
 H    5.1342918   -9.4228005    0.0000000  0.00    0.0022617    0.0010411   -0.0000000
 H    8.9301379   -4.9375896    0.0000000  0.00   -0.0005093    0.0019663   -0.0000000
 H    9.0194016   -2.5105364    0.0000000  0.00    0.0001298    0.0006008   -0.0000000
 H    9.0585360    0.0000000    0.0000000  0.00    0.0007600   -0.0000000   -0.0000000
 H    3.2360388   -9.3354536    0.0000000  0.00    0.0002178    0.0007418   -0.0000000
 H    0.8643894   -9.2304931    0.0000000  0.00    0.0007377   -0.0011680   -0.0000000
 C   -7.1221990    6.1012576    0.0000000  0.00    0.0011871    0.0000992   -0.0000000
 C   -5.6891859    6.0600778    0.0000000  0.00   -0.0001799    0.0016388   -0.0000000
 C   -7.7826277    7.3479923    0.0000000  0.00    0.0002050   -0.0001185   -0.0000000
 C   -4.9648168    7.2690768    0.0000000  0.00   -0.0005066   -0.0014804   -0.0000000
 C   -7.0581232    8.5188366    0.0000000  0.00   -0.0003451   -0.0013900   -0.0000000
 C   -5.6659473    8.4824142    0.0000000  0.00    0.0004129   -0.0002262   -0.0000000
 C   -7.2027764    3.6664786    0.0000000  0.00    0.0005037    0.0004191   -0.0000000
 C   -5.7584331    3.6306887    0.0000000  0.00   -0.0013462    0.0017241   -0.0000000
 C   -7.8459307    4.9012420    0.0000000  0.00   -0.0003630   -0.0005708   -0.0000000
 C   -5.0028830    4.8097966    0.0000000  0.00    0.0007031   -0.0008222   -0.0000000
 C   -7.2895591    1.2284101    0.0000000  0.00   -0.0007708   -0.0004590   -0.0000000
 C   -5.8533655    1.2193019    0.0000000  0.00   -0.0009851    0.0001475   -0.0000000
 C   -7.9356272    2.4659716    0.0000000  0.00   -0.0014487    0.0008036   -0.0000000
 C   -5.0857361    2.3964036    0.0000000  0.00   -0.0005075   -0.0011968   -0.0000000
 C   -7.9738108    0.0000000    0.0000000  0.00   -0.0013833   -0.0000000   -0.0000000
 C   -5.1753373    0.0000000    0.0000000  0.00   -0.0037651   -0.0000000   -0.0000000
 C   -3.5663295    4.7412342    0.0000000  0.00   -0.0016712    0.0013075   -0.0000000
 C   -2.8382731    5.9457415    0.0000000  0.00    0.0011565    0.0005110   -0.0000000
 C   -3.5182194    7.1976146    0.0000000  0.00   -0.0005255    0.0000360   -0.0000000
 C   -3.6483927    2.3479483    0.0000000  0.00    0.0009560   -0.0012976   -0.0000000
 C   -2.8690467    3.5018549    0.0000000  0.00    0.0036787    0.0021869   -0.0000000
 C   -3.7832633    0.0000000    0.0000000  0.00    0.0056898   -0.0000000   -0.0000000
 C   -2.9854352    1.1234610    0.0000000  0.00    0.0004292    0.0011740   -0.0000000
 C   -1.4176352    5.8546164    0.0000000  0.00   -0.0009534    0.0000181   -0.0000000
 C   -0.7141056    7.0773181    0.0000000  0.00   -0.0016398    0.0010285   -0.0000000
 C   -2.7627893    8.3651698    0.0000000  0.00   -0.0022116    0.0013317   -0.0000000
 C   -1.4029489    8.2986929    0.0000000  0.00    0.0028992    0.0008950   -0.0000000
 C   -1.4232658    3.3385612    0.0000000  0.00   -0.0023840   -0.0015019   -0.0000000
 C   -0.7140357    4.5765204    0.0000000  0.00    0.0029627   -0.0001222   -0.0000000
 C   -1.5820658    0.7987178    0.0000000  0.00    0.0010707   -0.0007522   -0.0000000
 C   -0.7363040    1.9957618    0.0000000  0.00    0.0014557   -0.0009952   -0.0000000
 H   -8.8666060    7.3672304    0.0000000  0.00    0.0009196   -0.0012578   -0.0000000
 H   -7.5664013    9.4760995    0.0000000  0.00   -0.0023388   -0.0015415   -0.0000000
 H   -5.1342918    9.4228005    0.0000000  0.00   -0.0022617   -0.0010411   -0.0000000
 H   -8.9301379    4.9375896    0.0000000  0.00    0.0005093   -0.0019663   -0.0000000
 H   -9.0194016    2.5105364    0.0000000  0.00   -0.0001298   -0.0006008   -0.0000000
 H   -9.0585360    0.0000000    0.0000000  0.00   -0.0007600   -0.0000000   -0.0000000
 H   -3.2360388    9.3354536    0.0000000  0.00   -0.0002178   -0.0007418   -0.0000000
 H   -0.8643894    9.2304931    0.0000000  0.00   -0.0007377    0.0011680   -0.0000000
 C    7.1221990    6.1012576    0.0000000  0.00   -0.0011871    0.0000992   -0.0000000
 C    5.6891859    6.0600778    0.0000000  0.00    0.0001799    0.0016388   -0.0000000
 C    7.7826277    7.3479923    0.0000000  0.00   -0.0002050   -0.0001185   -0.0000000
 C    4.9648168    7.2690768    0.0000000  0.00    0.0005066   -0.0014804   -0.0000000
 C    7.0581232    8.5188366    0.0000000  0.00    0.0003451   -0.0013900   -0.0000000
 C    5.6659473    8.4824142    0.0000000  0.00   -0.0004129   -0.0002262   -0.0000000
 C    7.2027764    3.6664786    0.0000000  0.00   -0.0005037    0.0004191   -0.0000000
 C    5.7584331    3.6306887    0.0000000  0.00    0.0013462    0.0017241   -0.0000000
 C    7.8459307    4.9012420    0.0000000  0.00    0.0003630   -0.0005708   -0.0000000
 C    5.0028830    4.8097966    0.0000000  0.00   -0.0007031   -0.0008222   -0.0000000
 C    7.2895591    1.2284101    0.0000000  0.00    0.0007708   -0.0004590   -0.0000000
 C    5.8533655    1.2193019    0.0000000  0.00    0.0009851    0.0001475   -0.0000000
 C    7.9356272    2.4659716    0.0000000  0.00    0.0014487    0.0008036   -0.0000000
 C    5.0857361    2.3964036    0.0000000  0.00    0.0005075   -0.0011968   -0.0000000
 C    3.5663295    4.7412342    0.0000000  0.00    0.0016712    0.0013075   -0.0000000
 C    2.8382731    5.9457415    0.0000000  0.00   -0.0011565    0.0005110   -0.0000000
 C    3.5182194    7.1976146    0.0000000  0.00    0.0005255    0.0000360   -0.0000000
 C    3.6483927    2.3479483    0.0000000  0.00   -0.0009560   -0.0012976   -0.0000000
 C    2.8690467    3.5018549    0.0000000  0.00   -0.0036787    0.0021869   -0.0000000
 C    2.9854352    1.1234610    0.0000000  0.00   -0.0004292    0.0011740   -0.0000000
 C    1.4176352    5.8546164    0.0000000  0.00    0.0009534    0.0000181   -0.0000000
 C    0.7141056    7.0773181    0.0000000  0.00    0.0016398    0.0010285   -0.0000000
 C    2.7627893    8.3651698    0.0000000  0.00    0.0022116    0.0013317   -0.0000000
 C    1.4029489    8.2986929    0.0000000  0.00   -0.0028992    0.0008950   -0.0000000
 C    1.4232658    3.3385612    0.0000000  0.00    0.0023840   -0.0015019   -0.0000000
 C    0.7140357    4.5765204    0.0000000  0.00   -0.0029627   -0.0001222   -0.0000000
 C    1.5820658    0.7987178    0.0000000  0.00   -0.0010707   -0.0007522   -0.0000000
 C    0.7363040    1.9957618    0.0000000  0.00   -0.0014557   -0.0009952   -0.0000000
 H    8.8666060    7.3672304    0.0000000  0.00   -0.0009196   -0.0012578   -0.0000000
 H    7.5664013    9.4760995    0.0000000  0.00    0.0023388   -0.0015415   -0.0000000
 H    5.1342918    9.4228005    0.0000000  0.00    0.0022617   -0.0010411   -0.0000000
 H    8.9301379    4.9375896    0.0000000  0.00   -0.0005093   -0.0019663   -0.0000000
 H    9.0194016    2.5105364    0.0000000  0.00    0.0001298   -0.0006008   -0.0000000
 H    3.2360388    9.3354536    0.0000000  0.00    0.0002178   -0.0007418   -0.0000000
 H    0.8643894    9.2304931    0.0000000  0.00    0.0007377    0.0011680   -0.0000000
 C   -7.1221990   -6.1012576    0.0000000  0.00    0.0011871   -0.0000992   -0.0000000
 C   -5.6891859   -6.0600778    0.0000000  0.00   -0.0001799   -0.0016388   -0.0000000
 C   -7.7826277   -7.3479923    0.0000000  0.00    0.0002050    0.0001185   -0.0000000
 C   -4.9648168   -7.2690768    0.0000000  0.00   -0.0005066    0.0014804   -0.0000000
 C   -7.0581232   -8.5188366    0.0000000  0.00   -0.0003451    0.0013900   -0.0000000
 C   -5.6659473   -8.4824142    0.0000000  0.00    0.0004129    0.0002262   -0.0000000
 C   -7.2027764   -3.6664786    0.0000000  0.00    0.0005037   -0.0004191   -0.0000000
 C   -5.7584331   -3.6306887    0.0000000  0.00   -0.0013462   -0.0017241   -0.0000000
 C   -7.8459307   -4.9012420    0.0000000  0.00   -0.0003630    0.0005708   -0.0000000
 C   -5.0028830   -4.8097966    0.0000000  0.00    0.0007031    0.0008222   -0.0000000
 C   -7.2895591   -1.2284101    0.0000000  0.00   -0.0007708    0.0004590   -0.0000000
 C   -5.8533655   -1.2193019    0.0000000  0.00   -0.0009851   -0.0001475   -0.0000000
 C   -7.9356272   -2.4659716    0.0000000  0.00   -0.0014487   -0.0008036   -0.0000000
 C   -5.0857361   -2.3964036    0.0000000  0.00   -0.0005075    0.0011968   -0.0000000
 C   -3.5663295   -4.7412342    0.0000000  0.00   -0.0016712   -0.0013075   -0.0000000
 C   -2.8382731   -5.9457415    0.0000000  0.00    0.0011565   -0.0005110   -0.0000000
 C   -3.5182194   -7.1976146    0.0000000  0.00   -0.0005255   -0.0000360   -0.0000000
 C   -3.6483927   -2.3479483    0.0000000  0.00    0.0009560    0.0012976   -0.0000000
 C   -2.8690467   -3.5018549    0.0000000  0.00    0.0036787   -0.0021869   -0.0000000
 C   -2.9854352   -1.1234610    0.0000000  0.00    0.0004292   -0.0011740   -0.0000000
 C   -1.4176352   -5.8546164    0.0000000  0.00   -0.0009534   -0.0000181   -0.0000000
 C   -0.7141056   -7.0773181    0.0000000  0.00   -0.0016398   -0.0010285   -0.0000000
 C   -2.7627893   -8.3651698    0.0000000  0.00   -0.0022116   -0.0013317   -0.0000000
 C   -1.4029489   -8.2986929    0.0000000  0.00    0.0028992   -0.0008950   -0.0000000
 C   -1.4232658   -3.3385612    0.0000000  0.00   -0.0023840    0.0015019   -0.0000000
 C   -0.7140357   -4.5765204    0.0000000  0.00    0.0029627    0.0001222   -0.0000000
 C   -1.5820658   -0.7987178    0.0000000  0.00    0.0010707    0.0007522   -0.0000000
 C   -0.7363040   -1.9957618    0.0000000  0.00    0.0014557    0.0009952   -0.0000000
 H   -8.8666060   -7.3672304    0.0000000  0.00    0.0009196    0.0012578   -0.0000000
 H   -7.5664013   -9.4760995    0.0000000  0.00   -0.0023388    0.0015415   -0.0000000
 H   -5.1342918   -9.4228005    0.0000000  0.00   -0.0022617    0.0010411   -0.0000000
 H   -8.9301379   -4.9375896    0.0000000  0.00    0.0005093    0.0019663   -0.0000000
 H   -9.0194016   -2.5105364    0.0000000  0.00   -0.0001298    0.0006008   -0.0000000
 H   -3.2360388   -9.3354536    0.0000000  0.00   -0.0002178    0.0007418   -0.0000000
 H   -0.8643894   -9.2304931    0.0000000  0.00   -0.0007377   -0.0011680   -0.0000000
