148
 Energy =   -4513.2496972360
 C    7.1084519   -6.0949293    0.0000000  0.00    0.0005425   -0.0015433   -0.0000000
 C    5.6769710   -6.0515110    0.0000000  0.00   -0.0004272   -0.0015962   -0.0000000
 C    7.7720724   -7.3421909    0.0000000  0.00   -0.0004507   -0.0009080   -0.0000000
 C    4.9531957   -7.2621977    0.0000000  0.00    0.0002693    0.0000930   -0.0000000
 C    7.0494806   -8.5102317    0.0000000  0.00   -0.0008062    0.0002263   -0.0000000
 C    5.6556868   -8.4727931    0.0000000  0.00   -0.0008401    0.0000986   -0.0000000
 C    7.1933082   -3.6656939    0.0000000  0.00   -0.0012302    0.0003495   -0.0000000
 C    5.7527323   -3.6278268    0.0000000  0.00   -0.0019341   -0.0003442   -0.0000000
 C    7.8339129   -4.8996359    0.0000000  0.00   -0.0005453   -0.0004391   -0.0000000
 C    4.9942816   -4.8045389    0.0000000  0.00    0.0011822    0.0014578   -0.0000000
 C    7.2956274   -1.2308136    0.0000000  0.00   -0.0014722    0.0001539   -0.0000000
 C    5.8563646   -1.2208923    0.0000000  0.00    0.0003263    0.0001991   -0.0000000
 C    7.9352609   -2.4656664    0.0000000  0.00   -0.0025404   -0.0012876   -0.0000000
 C    5.0834248   -2.3908791    0.0000000  0.00   -0.0012141    0.0004159   -0.0000000
 C    7.9840835    0.0000000    0.0000000  0.00   -0.0021205   -0.0000000   -0.0000000
 C    5.1763851    0.0000000    0.0000000  0.00    0.0020063   -0.0000000   -0.0000000
 C    3.5555471   -4.7351470    0.0000000  0.00    0.0002901   -0.0007891   -0.0000000
 C    2.8300672   -5.9457564    0.0000000  0.00    0.0004436    0.0009956   -0.0000000
 C    3.5086282   -7.1954203    0.0000000  0.00   -0.0006639   -0.0009438   -0.0000000
 C    3.6433597   -2.3396142    0.0000000  0.00   -0.0019888   -0.0005674   -0.0000000
 C    2.8607161   -3.4964943    0.0000000  0.00    0.0004352    0.0016640   -0.0000000
 C    3.7913782    0.0000000    0.0000000  0.00    0.0017990   -0.0000000   -0.0000000
 C    2.9852269   -1.1178442    0.0000000  0.00   -0.0002205   -0.0004576   -0.0000000
 C    1.4119373   -5.8565954    0.0000000  0.00    0.0013126    0.0008010   -0.0000000
 C    0.7102154   -7.0797033    0.0000000  0.00    0.0005645    0.0010683   -0.0000000
 C    2.7553118   -8.3720059    0.0000000  0.00   -0.0011005    0.0006857   -0.0000000
 C    1.4015292   -8.3086338    0.0000000  0.00    0.0006095    0.0007217   -0.0000000
 C    1.4155979   -3.3273234    0.0000000  0.00   -0.0007343   -0.0001679   -0.0000000
 C    0.7068003   -4.5793167    0.0000000  0.00   -0.0006680    0.0002492   -0.0000000
 C    1.5816577   -0.7695990    0.0000000  0.00   -0.0000295    0.0003556   -0.0000000
 C    0.7256437   -2.0014506    0.0000000  0.00    0.0006423   -0.0008180   -0.0000000
 H    8.8591740   -7.3572355    0.0000000  0.00    0.0000333   -0.0021722   -0.0000000
 H    7.5560022   -9.4721746    0.0000000  0.00   -0.0008723   -0.0002181   -0.0000000
 H    5.1245004   -9.4206733    0.0000000  0.00    0.0021549    0.0005429   -0.0000000
 H    8.9194212   -4.9398801    0.0000000  0.00   -0.0014970   -0.0004809   -0.0000000
 H    9.0188569   -2.5189216    0.0000000  0.00   -0.0016246    0.0016256   -0.0000000
 H    9.0685007    0.0000000    0.0000000  0.00   -0.0018648   -0.0000000   -0.0000000
 H    3.2259710   -9.3513781    0.0000000  0.00   -0.0015328    0.0005599   -0.0000000
 H    0.8679687   -9.2525336    0.0000000  0.00    0.0012662   -0.0001527   -0.0000000
 C   -7.1084519    6.0949293    0.0000000  0.00   -0.0005425    0.0015433   -0.0000000
 C   -5.6769710    6.0515110    0.0000000  0.00    0.0004272    0.0015962   -0.0000000
 C   -7.7720724    7.3421909    0.0000000  0.00    0.0004507    0.0009080   -0.0000000
 C   -4.9531957    7.2621977    0.0000000  0.00   -0.0002693   -0.0000930   -0.0000000
 C   -7.0494806    8.5102317    0.0000000  0.00    0.0008062   -0.0002263   -0.0000000
 C   -5.6556868    8.4727931    0.0000000  0.00    0.0008401   -0.0000986   -0.0000000
 C   -7.1933082    3.6656939    0.0000000  0.00    0.0012302   -0.0003495   -0.0000000
 C   -5.7527323    3.6278268    0.0000000  0.00    0.0019341    0.0003442   -0.0000000
 C   -7.8339129    4.8996359    0.0000000  0.00    0.0005453    0.0004391   -0.0000000
 C   -4.9942816    4.8045389    0.0000000  0.00   -0.0011822   -0.0014578   -0.0000000
 C   -7.2956274    1.2308136    0.0000000  0.00    0.0014722   -0.0001539   -0.0000000
 C   -5.8563646    1.2208923    0.0000000  0.00   -0.0003263   -0.0001991   -0.0000000
 C   -7.9352609    2.4656664    0.0000000  0.00    0.0025404    0.0012876   -0.0000000
 C   -5.0834248    2.3908791    0.0000000  0.00    0.0012141   -0.0004159   -0.0000000
 C   -7.9840835    0.0000000    0.0000000  0.00    0.0021205   -0.0000000   -0.0000000
 C   -5.1763851    0.0000000    0.0000000  0.00   -0.0020063   -0.0000000   -0.0000000
 C   -3.5555471    4.7351470    0.0000000  0.00   -0.0002901    0.0007891   -0.0000000
 C   -2.8300672    5.9457564    0.0000000  0.00   -0.0004436   -0.0009956   -0.0000000
 C   -3.5086282    7.1954203    0.0000000  0.00    0.0006639    0.0009438   -0.0000000
 C   -3.6433597    2.3396142    0.0000000  0.00    0.0019888    0.0005674   -0.0000000
 C   -2.8607161    3.4964943    0.0000000  0.00   -0.0004352   -0.0016640   -0.0000000
 C   -3.7913782    0.0000000    0.0000000  0.00   -0.0017990   -0.0000000   -0.0000000
 C   -2.9852269    1.1178442    0.0000000  0.00    0.0002205    0.0004576   -0.0000000
 C   -1.4119373    5.8565954    0.0000000  0.00   -0.0013126   -0.0008010   -0.0000000
 C   -0.7102154    7.0797033    0.0000000  0.00   -0.0005645   -0.0010683   -0.0000000
 C   -2.7553118    8.3720059    0.0000000  0.00    0.0011005   -0.0006857   -0.0000000
 C   -1.4015292    8.3086338    0.0000000  0.00   -0.0006095   -0.0007217   -0.0000000
 C   -1.4155979    3.3273234    0.0000000  0.00    0.0007343    0.0001679   -0.0000000
 C   -0.7068003    4.5793167    0.0000000  0.00    0.0006680   -0.0002492   -0.0000000
 C   -1.5816577    0.7695990    0.0000000  0.00    0.0000295   -0.0003556   -0.0000000
 C   -0.7256437    2.0014506    0.0000000  0.00   -0.0006423    0.0008180   -0.0000000
 H   -8.8591740    7.3572355    0.0000000  0.00   -0.0000333    0.0021722   -0.0000000
 H   -7.5560022    9.4721746    0.0000000  0.00    0.0008723    0.0002181   -0.0000000
 H   -5.1245004    9.4206733    0.0000000  0.00   -0.0021549   -0.0005429   -0.0000000
 H   -8.9194212    4.9398801    0.0000000  0.00    0.0014970    0.0004809   -0.0000000
 H   -9.0188569    2.5189216    0.0000000  0.00    0.0016246   -0.0016256   -0.0000000
 H   -9.0685007    0.0000000    0.0000000  0.00    0.0018648   -0.0000000   -0.0000000
 H   -3.2259710    9.3513781    0.0000000  0.00    0.0015328   -0.0005599   -0.0000000
 H   -0.8679687    9.2525336    0.0000000  0.00   -0.0012662    0.0001527   -0.0000000
 C    7.1084519    6.0949293    0.0000000  0.00    0.0005425    0.0015433   -0.0000000
 C    5.6769710    6.0515110    0.0000000  0.00   -0.0004272    0.0015962   -0.0000000
 C    7.7720724    7.3421909    0.0000000  0.00   -0.0004507    0.0009080   -0.0000000
 C    4.9531957    7.2621977    0.0000000  0.00    0.0002693   -0.0000930   -0.0000000
 C    7.0494806    8.5102317    0.0000000  0.00   -0.0008062   -0.0002263   -0.0000000
 C    5.6556868    8.4727931    0.0000000  0.00   -0.0008401   -0.0000986   -0.0000000
 C    7.1933082    3.6656939    0.0000000  0.00   -0.0012302   -0.0003495   -0.0000000
 C    5.7527323    3.6278268    0.0000000  0.00   -0.0019341    0.0003442   -0.0000000
 C    7.8339129    4.8996359    0.0000000  0.00   -0.0005453    0.0004391   -0.0000000
 C    4.9942816    4.8045389    0.0000000  0.00    0.0011822   -0.0014578   -0.0000000
 C    7.2956274    1.2308136    0.0000000  0.00   -0.0014722   -0.0001539   -0.0000000
 C    5.8563646    1.2208923    0.0000000  0.00    0.0003263   -0.0001991   -0.0000000
 C    7.9352609    2.4656664    0.0000000  0.00   -0.0025404    0.0012876   -0.0000000
 C    5.0834248    2.3908791    0.0000000  0.00   -0.0012141   -0.0004159   -0.0000000
 C    3.5555471    4.7351470    0.0000000  0.00    0.0002901    0.0007891   -0.0000000
 C    2.8300672    5.9457564    0.0000000  0.00    0.0004436   -0.0009956   -0.0000000
 C    3.5086282    7.1954203    0.0000000  0.00   -0.0006639    0.0009438   -0.0000000
 C    3.6433597    2.3396142    0.0000000  0.00   -0.0019888    0.0005674   -0.0000000
 C    2.8607161    3.4964943    0.0000000  0.00    0.0004352   -0.0016640   -0.0000000
 C    2.9852269    1.1178442    0.0000000  0.00   -0.0002205    0.0004576   -0.0000000
 C    1.4119373    5.8565954    0.0000000  0.00    0.0013126   -0.0008010   -0.0000000
 C    0.7102154    7.0797033    0.0000000  0.00    0.0005645   -0.0010683   -0.0000000
 C    2.7553118    8.3720059    0.0000000  0.00   -0.0011005   -0.0006857   -0.0000000
 C    1.4015292    8.3086338    0.0000000  0.00    0.0006095   -0.0007217   -0.0000000
 C    1.4155979    3.3273234    0.0000000  0.00   -0.0007343    0.0001679   -0.0000000
 C    0.7068003    4.5793167    0.0000000  0.00   -0.0006680   -0.0002492   -0.0000000
 C    1.5816577    0.7695990    0.0000000  0.00   -0.0000295   -0.0003556   -0.0000000
 C    0.7256437    2.0014506    0.0000000  0.00    0.0006423    0.0008180   -0.0000000
 H    8.8591740    7.3572355    0.0000000  0.00    0.0000333    0.0021722   -0.0000000
 H    7.5560022    9.4721746    0.0000000  0.00   -0.0008723    0.0002181   -0.0000000
 H    5.1245004    9.4206733    0.0000000  0.00    0.0021549   -0.0005429   -0.0000000
 H    8.9194212    4.9398801    0.0000000  0.00   -0.0014970    0.0004809   -0.0000000
 H    9.0188569    2.5189216    0.0000000  0.00   -0.0016246   -0.0016256   -0.0000000
 H    3.2259710    9.3513781    0.0000000  0.00   -0.0015328   -0.0005599   -0.0000000
 H    0.8679687    9.2525336    0.0000000  0.00    0.0012662    0.0001527   -0.0000000
 C   -7.1084519   -6.0949293    0.0000000  0.00   -0.0005425   -0.0015433   -0.0000000
 C   -5.6769710   -6.0515110    0.0000000  0.00    0.0004272   -0.0015962   -0.0000000
 C   -7.7720724   -7.3421909    0.0000000  0.00    0.0004507   -0.0009080   -0.0000000
 C   -4.9531957   -7.2621977    0.0000000  0.00   -0.0002693    0.0000930   -0.0000000
 C   -7.0494806   -8.5102317    0.0000000  0.00    0.0008062    0.0002263   -0.0000000
 C   -5.6556868   -8.4727931    0.0000000  0.00    0.0008401    0.0000986   -0.0000000
 C   -7.1933082   -3.6656939    0.0000000  0.00    0.0012302    0.0003495   -0.0000000
 C   -5.7527323   -3.6278268    0.0000000  0.00    0.0019341   -0.0003442   -0.0000000
 C   -7.8339129   -4.8996359    0.0000000  0.00    0.0005453   -0.0004391   -0.0000000
 C   -4.9942816   -4.8045389    0.0000000  0.00   -0.0011822    0.0014578   -0.0000000
 C   -7.2956274   -1.2308136    0.0000000  0.00    0.0014722    0.0001539   -0.0000000
 C   -5.8563646   -1.2208923    0.0000000  0.00   -0.0003263    0.0001991   -0.0000000
 C   -7.9352609   -2.4656664    0.0000000  0.00    0.0025404   -0.0012876   -0.0000000
 C   -5.0834248   -2.3908791    0.0000000  0.00    0.0012141    0.0004159   -0.0000000
 C   -3.5555471   -4.7351470    0.0000000  0.00   -0.0002901   -0.0007891   -0.0000000
 C   -2.8300672   -5.9457564    0.0000000  0.00   -0.0004436    0.0009956   -0.0000000
 C   -3.5086282   -7.1954203    0.0000000  0.00    0.0006639   -0.0009438   -0.0000000
 C   -3.6433597   -2.3396142    0.0000000  0.00    0.0019888   -0.0005674   -0.0000000
 C   -2.8607161   -3.4964943    0.0000000  0.00   -0.0004352    0.0016640   -0.0000000
 C   -2.9852269   -1.1178442    0.0000000  0.00    0.0002205   -0.0004576   -0.0000000
 C   -1.4119373   -5.8565954    0.0000000  0.00   -0.0013126    0.0008010   -0.0000000
 C   -0.7102154   -7.0797033    0.0000000  0.00   -0.0005645    0.0010683   -0.0000000
 C   -2.7553118   -8.3720059    0.0000000  0.00    0.0011005    0.0006857   -0.0000000
 C   -1.4015292   -8.3086338    0.0000000  0.00   -0.0006095    0.0007217   -0.0000000
 C   -1.4155979   -3.3273234    0.0000000  0.00    0.0007343   -0.0001679   -0.0000000
 C   -0.7068003   -4.5793167    0.0000000  0.00    0.0006680    0.0002492   -0.0000000
 C   -1.5816577   -0.7695990    0.0000000  0.00    0.0000295    0.0003556   -0.0000000
 C   -0.7256437   -2.0014506    0.0000000  0.00   -0.0006423   -0.0008180   -0.0000000
 H   -8.8591740   -7.3572355    0.0000000  0.00   -0.0000333   -0.0021722   -0.0000000
 H   -7.5560022   -9.4721746    0.0000000  0.00    0.0008723   -0.0002181   -0.0000000
 H   -5.1245004   -9.4206733    0.0000000  0.00   -0.0021549    0.0005429   -0.0000000
 H   -8.9194212   -4.9398801    0.0000000  0.00    0.0014970   -0.0004809   -0.0000000
 H   -9.0188569   -2.5189216    0.0000000  0.00    0.0016246    0.0016256   -0.0000000
 H   -3.2259710   -9.3513781    0.0000000  0.00    0.0015328    0.0005599   -0.0000000
 H   -0.8679687   -9.2525336    0.0000000  0.00   -0.0012662   -0.0001527   -0.0000000
