148
 Energy =   -4513.2203133600
 C    7.1169958   -6.1043564    0.0000000  0.00   -0.0006015   -0.0010240   -0.0000000
 C    5.6825900   -6.0671757    0.0000000  0.00   -0.0005481   -0.0005314   -0.0000000
 C    7.7789092   -7.3519922    0.0000000  0.00    0.0016863    0.0008721   -0.0000000
 C    4.9596317   -7.2753189    0.0000000  0.00    0.0006348    0.0012385   -0.0000000
 C    7.0545341   -8.5227152    0.0000000  0.00    0.0008435   -0.0007719   -0.0000000
 C    5.6642520   -8.4910401    0.0000000  0.00   -0.0014805   -0.0009660   -0.0000000
 C    7.1946011   -3.6671919    0.0000000  0.00    0.0003217    0.0008364   -0.0000000
 C    5.7511218   -3.6348135    0.0000000  0.00    0.0035045   -0.0019945   -0.0000000
 C    7.8378047   -4.9073095    0.0000000  0.00    0.0019995    0.0027911   -0.0000000
 C    4.9968052   -4.8182259    0.0000000  0.00   -0.0016799    0.0021100   -0.0000000
 C    7.2769503   -1.2296554    0.0000000  0.00   -0.0012451    0.0017540   -0.0000000
 C    5.8405611   -1.2220334    0.0000000  0.00    0.0008395   -0.0023443   -0.0000000
 C    7.9230186   -2.4693978    0.0000000  0.00    0.0003184    0.0006735   -0.0000000
 C    5.0782563   -2.4035600    0.0000000  0.00   -0.0047858    0.0041770   -0.0000000
 C    7.9575929    0.0000000    0.0000000  0.00    0.0004398   -0.0000000   -0.0000000
 C    5.1611875    0.0000000    0.0000000  0.00   -0.0028875   -0.0000000   -0.0000000
 C    3.5662422   -4.7560150    0.0000000  0.00   -0.0001516   -0.0025944   -0.0000000
 C    2.8371507   -5.9572724    0.0000000  0.00   -0.0000324    0.0013742   -0.0000000
 C    3.5168372   -7.2111585    0.0000000  0.00   -0.0026169    0.0009340   -0.0000000
 C    3.6427368   -2.3587419    0.0000000  0.00    0.0044210   -0.0034086   -0.0000000
 C    2.8653810   -3.5087685    0.0000000  0.00   -0.0050368    0.0027515   -0.0000000
 C    3.7699250    0.0000000    0.0000000  0.00    0.0018694   -0.0000000   -0.0000000
 C    2.9782425   -1.1314169    0.0000000  0.00   -0.0025812    0.0035606   -0.0000000
 C    1.4155179   -5.8682889    0.0000000  0.00   -0.0026549   -0.0002729   -0.0000000
 C    0.7120932   -7.0905578    0.0000000  0.00    0.0027476    0.0004593   -0.0000000
 C    2.7587378   -8.3812104    0.0000000  0.00    0.0009750   -0.0001928   -0.0000000
 C    1.4021929   -8.3162724    0.0000000  0.00   -0.0018767    0.0013613   -0.0000000
 C    1.4269920   -3.3541374    0.0000000  0.00   -0.0007574   -0.0015504   -0.0000000
 C    0.7123788   -4.5911392    0.0000000  0.00   -0.0003448    0.0002680   -0.0000000
 C    1.5844261   -0.8341956    0.0000000  0.00   -0.0024971   -0.0010960   -0.0000000
 C    0.7440540   -2.0081020    0.0000000  0.00    0.0002236    0.0003341   -0.0000000
 H    8.8650378   -7.3693734    0.0000000  0.00    0.0008122   -0.0000543   -0.0000000
 H    7.5641472   -9.4822944    0.0000000  0.00    0.0003574   -0.0009395   -0.0000000
 H    5.1322136   -9.4373833    0.0000000  0.00    0.0017117   -0.0007901   -0.0000000
 H    8.9227857   -4.9436499    0.0000000  0.00    0.0006230   -0.0001375   -0.0000000
 H    9.0069747   -2.5115504    0.0000000  0.00   -0.0012543   -0.0021777   -0.0000000
 H    9.0423892    0.0000000    0.0000000  0.00   -0.0019565   -0.0000000   -0.0000000
 H    3.2237597   -9.3641372    0.0000000  0.00    0.0005968    0.0001014   -0.0000000
 H    0.8693771   -9.2630366    0.0000000  0.00    0.0037194    0.0000522   -0.0000000
 C   -7.1169958    6.1043564    0.0000000  0.00    0.0006015    0.0010240   -0.0000000
 C   -5.6825900    6.0671757    0.0000000  0.00    0.0005481    0.0005314   -0.0000000
 C   -7.7789092    7.3519922    0.0000000  0.00   -0.0016863   -0.0008721   -0.0000000
 C   -4.9596317    7.2753189    0.0000000  0.00   -0.0006348   -0.0012385   -0.0000000
 C   -7.0545341    8.5227152    0.0000000  0.00   -0.0008435    0.0007719   -0.0000000
 C   -5.6642520    8.4910401    0.0000000  0.00    0.0014805    0.0009660   -0.0000000
 C   -7.1946011    3.6671919    0.0000000  0.00   -0.0003217   -0.0008364   -0.0000000
 C   -5.7511218    3.6348135    0.0000000  0.00   -0.0035045    0.0019945   -0.0000000
 C   -7.8378047    4.9073095    0.0000000  0.00   -0.0019995   -0.0027911   -0.0000000
 C   -4.9968052    4.8182259    0.0000000  0.00    0.0016799   -0.0021100   -0.0000000
 C   -7.2769503    1.2296554    0.0000000  0.00    0.0012451   -0.0017540   -0.0000000
 C   -5.8405611    1.2220334    0.0000000  0.00   -0.0008395    0.0023443   -0.0000000
 C   -7.9230186    2.4693978    0.0000000  0.00   -0.0003184   -0.0006735   -0.0000000
 C   -5.0782563    2.4035600    0.0000000  0.00    0.0047858   -0.0041770   -0.0000000
 C   -7.9575929    0.0000000    0.0000000  0.00   -0.0004398   -0.0000000   -0.0000000
 C   -5.1611875    0.0000000    0.0000000  0.00    0.0028875   -0.0000000   -0.0000000
 C   -3.5662422    4.7560150    0.0000000  0.00    0.0001516    0.0025944   -0.0000000
 C   -2.8371507    5.9572724    0.0000000  0.00    0.0000324   -0.0013742   -0.0000000
 C   -3.5168372    7.2111585    0.0000000  0.00    0.0026169   -0.0009340   -0.0000000
 C   -3.6427368    2.3587419    0.0000000  0.00   -0.0044210    0.0034086   -0.0000000
 C   -2.8653810    3.5087685    0.0000000  0.00    0.0050368   -0.0027515   -0.0000000
 C   -3.7699250    0.0000000    0.0000000  0.00   -0.0018694   -0.0000000   -0.0000000
 C   -2.9782425    1.1314169    0.0000000  0.00    0.0025812   -0.0035606   -0.0000000
 C   -1.4155179    5.8682889    0.0000000  0.00    0.0026549    0.0002729   -0.0000000
 C   -0.7120932    7.0905578    0.0000000  0.00   -0.0027476   -0.0004593   -0.0000000
 C   -2.7587378    8.3812104    0.0000000  0.00   -0.0009750    0.0001928   -0.0000000
 C   -1.4021929    8.3162724    0.0000000  0.00    0.0018767   -0.0013613   -0.0000000
 C   -1.4269920    3.3541374    0.0000000  0.00    0.0007574    0.0015504   -0.0000000
 C   -0.7123788    4.5911392    0.0000000  0.00    0.0003448   -0.0002680   -0.0000000
 C   -1.5844261    0.8341956    0.0000000  0.00    0.0024971    0.0010960   -0.0000000
 C   -0.7440540    2.0081020    0.0000000  0.00   -0.0002236   -0.0003341   -0.0000000
 H   -8.8650378    7.3693734    0.0000000  0.00   -0.0008122    0.0000543   -0.0000000
 H   -7.5641472    9.4822944    0.0000000  0.00   -0.0003574    0.0009395   -0.0000000
 H   -5.1322136    9.4373833    0.0000000  0.00   -0.0017117    0.0007901   -0.0000000
 H   -8.9227857    4.9436499    0.0000000  0.00   -0.0006230    0.0001375   -0.0000000
 H   -9.0069747    2.5115504    0.0000000  0.00    0.0012543    0.0021777   -0.0000000
 H   -9.0423892    0.0000000    0.0000000  0.00    0.0019565   -0.0000000   -0.0000000
 H   -3.2237597    9.3641372    0.0000000  0.00   -0.0005968   -0.0001014   -0.0000000
 H   -0.8693771    9.2630366    0.0000000  0.00   -0.0037194   -0.0000522   -0.0000000
 C    7.1169958    6.1043564    0.0000000  0.00   -0.0006015    0.0010240   -0.0000000
 C    5.6825900    6.0671757    0.0000000  0.00   -0.0005481    0.0005314   -0.0000000
 C    7.7789092    7.3519922    0.0000000  0.00    0.0016863   -0.0008721   -0.0000000
 C    4.9596317    7.2753189    0.0000000  0.00    0.0006348   -0.0012385   -0.0000000
 C    7.0545341    8.5227152    0.0000000  0.00    0.0008435    0.0007719   -0.0000000
 C    5.6642520    8.4910401    0.0000000  0.00   -0.0014805    0.0009660   -0.0000000
 C    7.1946011    3.6671919    0.0000000  0.00    0.0003217   -0.0008364   -0.0000000
 C    5.7511218    3.6348135    0.0000000  0.00    0.0035045    0.0019945   -0.0000000
 C    7.8378047    4.9073095    0.0000000  0.00    0.0019995   -0.0027911   -0.0000000
 C    4.9968052    4.8182259    0.0000000  0.00   -0.0016799   -0.0021100   -0.0000000
 C    7.2769503    1.2296554    0.0000000  0.00   -0.0012451   -0.0017540   -0.0000000
 C    5.8405611    1.2220334    0.0000000  0.00    0.0008395    0.0023443   -0.0000000
 C    7.9230186    2.4693978    0.0000000  0.00    0.0003184   -0.0006735   -0.0000000
 C    5.0782563    2.4035600    0.0000000  0.00   -0.0047858   -0.0041770   -0.0000000
 C    3.5662422    4.7560150    0.0000000  0.00   -0.0001516    0.0025944   -0.0000000
 C    2.8371507    5.9572724    0.0000000  0.00   -0.0000324   -0.0013742   -0.0000000
 C    3.5168372    7.2111585    0.0000000  0.00   -0.0026169   -0.0009340   -0.0000000
 C    3.6427368    2.3587419    0.0000000  0.00    0.0044210    0.0034086   -0.0000000
 C    2.8653810    3.5087685    0.0000000  0.00   -0.0050368   -0.0027515   -0.0000000
 C    2.9782425    1.1314169    0.0000000  0.00   -0.0025812   -0.0035606   -0.0000000
 C    1.4155179    5.8682889    0.0000000  0.00   -0.0026549    0.0002729   -0.0000000
 C    0.7120932    7.0905578    0.0000000  0.00    0.0027476   -0.0004593   -0.0000000
 C    2.7587378    8.3812104    0.0000000  0.00    0.0009750    0.0001928   -0.0000000
 C    1.4021929    8.3162724    0.0000000  0.00   -0.0018767   -0.0013613   -0.0000000
 C    1.4269920    3.3541374    0.0000000  0.00   -0.0007574    0.0015504   -0.0000000
 C    0.7123788    4.5911392    0.0000000  0.00   -0.0003448   -0.0002680   -0.0000000
 C    1.5844261    0.8341956    0.0000000  0.00   -0.0024971    0.0010960   -0.0000000
 C    0.7440540    2.0081020    0.0000000  0.00    0.0002236   -0.0003341   -0.0000000
 H    8.8650378    7.3693734    0.0000000  0.00    0.0008122    0.0000543   -0.0000000
 H    7.5641472    9.4822944    0.0000000  0.00    0.0003574    0.0009395   -0.0000000
 H    5.1322136    9.4373833    0.0000000  0.00    0.0017117    0.0007901   -0.0000000
 H    8.9227857    4.9436499    0.0000000  0.00    0.0006230    0.0001375   -0.0000000
 H    9.0069747    2.5115504    0.0000000  0.00   -0.0012543    0.0021777   -0.0000000
 H    3.2237597    9.3641372    0.0000000  0.00    0.0005968   -0.0001014   -0.0000000
 H    0.8693771    9.2630366    0.0000000  0.00    0.0037194   -0.0000522   -0.0000000
 C   -7.1169958   -6.1043564    0.0000000  0.00    0.0006015   -0.0010240   -0.0000000
 C   -5.6825900   -6.0671757    0.0000000  0.00    0.0005481   -0.0005314   -0.0000000
 C   -7.7789092   -7.3519922    0.0000000  0.00   -0.0016863    0.0008721   -0.0000000
 C   -4.9596317   -7.2753189    0.0000000  0.00   -0.0006348    0.0012385   -0.0000000
 C   -7.0545341   -8.5227152    0.0000000  0.00   -0.0008435   -0.0007719   -0.0000000
 C   -5.6642520   -8.4910401    0.0000000  0.00    0.0014805   -0.0009660   -0.0000000
 C   -7.1946011   -3.6671919    0.0000000  0.00   -0.0003217    0.0008364   -0.0000000
 C   -5.7511218   -3.6348135    0.0000000  0.00   -0.0035045   -0.0019945   -0.0000000
 C   -7.8378047   -4.9073095    0.0000000  0.00   -0.0019995    0.0027911   -0.0000000
 C   -4.9968052   -4.8182259    0.0000000  0.00    0.0016799    0.0021100   -0.0000000
 C   -7.2769503   -1.2296554    0.0000000  0.00    0.0012451    0.0017540   -0.0000000
 C   -5.8405611   -1.2220334    0.0000000  0.00   -0.0008395   -0.0023443   -0.0000000
 C   -7.9230186   -2.4693978    0.0000000  0.00   -0.0003184    0.0006735   -0.0000000
 C   -5.0782563   -2.4035600    0.0000000  0.00    0.0047858    0.0041770   -0.0000000
 C   -3.5662422   -4.7560150    0.0000000  0.00    0.0001516   -0.0025944   -0.0000000
 C   -2.8371507   -5.9572724    0.0000000  0.00    0.0000324    0.0013742   -0.0000000
 C   -3.5168372   -7.2111585    0.0000000  0.00    0.0026169    0.0009340   -0.0000000
 C   -3.6427368   -2.3587419    0.0000000  0.00   -0.0044210   -0.0034086   -0.0000000
 C   -2.8653810   -3.5087685    0.0000000  0.00    0.0050368    0.0027515   -0.0000000
 C   -2.9782425   -1.1314169    0.0000000  0.00    0.0025812    0.0035606   -0.0000000
 C   -1.4155179   -5.8682889    0.0000000  0.00    0.0026549   -0.0002729   -0.0000000
 C   -0.7120932   -7.0905578    0.0000000  0.00   -0.0027476    0.0004593   -0.0000000
 C   -2.7587378   -8.3812104    0.0000000  0.00   -0.0009750   -0.0001928   -0.0000000
 C   -1.4021929   -8.3162724    0.0000000  0.00    0.0018767    0.0013613   -0.0000000
 C   -1.4269920   -3.3541374    0.0000000  0.00    0.0007574   -0.0015504   -0.0000000
 C   -0.7123788   -4.5911392    0.0000000  0.00    0.0003448    0.0002680   -0.0000000
 C   -1.5844261   -0.8341956    0.0000000  0.00    0.0024971   -0.0010960   -0.0000000
 C   -0.7440540   -2.0081020    0.0000000  0.00   -0.0002236    0.0003341   -0.0000000
 H   -8.8650378   -7.3693734    0.0000000  0.00   -0.0008122   -0.0000543   -0.0000000
 H   -7.5641472   -9.4822944    0.0000000  0.00   -0.0003574   -0.0009395   -0.0000000
 H   -5.1322136   -9.4373833    0.0000000  0.00   -0.0017117   -0.0007901   -0.0000000
 H   -8.9227857   -4.9436499    0.0000000  0.00   -0.0006230   -0.0001375   -0.0000000
 H   -9.0069747   -2.5115504    0.0000000  0.00    0.0012543   -0.0021777   -0.0000000
 H   -3.2237597   -9.3641372    0.0000000  0.00   -0.0005968    0.0001014   -0.0000000
 H   -0.8693771   -9.2630366    0.0000000  0.00   -0.0037194    0.0000522   -0.0000000
