148
 Energy =   -4513.3790580680
 C    7.1341690   -6.1005119    0.0000000  0.00   -0.0003308    0.0014051   -0.0000000
 C    5.6937517   -6.0662311    0.0000000  0.00    0.0020222    0.0009045   -0.0000000
 C    7.7989441   -7.3473872    0.0000000  0.00    0.0014262    0.0004289   -0.0000000
 C    4.9715184   -7.2778169    0.0000000  0.00   -0.0001159    0.0012183   -0.0000000
 C    7.0748466   -8.5194255    0.0000000  0.00   -0.0002715    0.0007531   -0.0000000
 C    5.6844684   -8.4912600    0.0000000  0.00    0.0009405    0.0006431   -0.0000000
 C    7.1952090   -3.6633957    0.0000000  0.00    0.0007041    0.0005150   -0.0000000
 C    5.7480748   -3.6305958    0.0000000  0.00    0.0010775   -0.0025195   -0.0000000
 C    7.8511838   -4.9011177    0.0000000  0.00   -0.0013169   -0.0005624   -0.0000000
 C    4.9972569   -4.8193312    0.0000000  0.00   -0.0001592    0.0021105   -0.0000000
 C    7.2537839   -1.2269768    0.0000000  0.00    0.0001885   -0.0009551   -0.0000000
 C    5.8254034   -1.2187487    0.0000000  0.00   -0.0000770   -0.0000289   -0.0000000
 C    7.9178688   -2.4648319    0.0000000  0.00   -0.0010487   -0.0009589   -0.0000000
 C    5.0704168   -2.4045023    0.0000000  0.00    0.0003768    0.0003233   -0.0000000
 C    7.9402054    0.0000000    0.0000000  0.00    0.0000350   -0.0000000   -0.0000000
 C    5.1499951    0.0000000    0.0000000  0.00    0.0027530   -0.0000000   -0.0000000
 C    3.5685071   -4.7624058    0.0000000  0.00    0.0012562    0.0005207   -0.0000000
 C    2.8425183   -5.9639756    0.0000000  0.00    0.0003047   -0.0007667   -0.0000000
 C    3.5268098   -7.2148146    0.0000000  0.00    0.0012985    0.0016652   -0.0000000
 C    3.6367835   -2.3634716    0.0000000  0.00    0.0003175   -0.0006382   -0.0000000
 C    2.8648125   -3.5168419    0.0000000  0.00   -0.0007737   -0.0002283   -0.0000000
 C    3.7581319    0.0000000    0.0000000  0.00   -0.0008361   -0.0000000   -0.0000000
 C    2.9705737   -1.1349461    0.0000000  0.00   -0.0009159   -0.0013527   -0.0000000
 C    1.4182102   -5.8786598    0.0000000  0.00   -0.0006013    0.0009752   -0.0000000
 C    0.7141486   -7.1018030    0.0000000  0.00    0.0012271    0.0006636   -0.0000000
 C    2.7692621   -8.3848886    0.0000000  0.00    0.0004543   -0.0002443   -0.0000000
 C    1.4094255   -8.3241162    0.0000000  0.00   -0.0007280    0.0014422   -0.0000000
 C    1.4275743   -3.3655637    0.0000000  0.00   -0.0008233   -0.0000383   -0.0000000
 C    0.7136147   -4.6020398    0.0000000  0.00    0.0021817    0.0009474   -0.0000000
 C    1.5780509   -0.8446677    0.0000000  0.00    0.0002633    0.0001664   -0.0000000
 C    0.7443083   -2.0152828    0.0000000  0.00    0.0000480    0.0002258   -0.0000000
 H    8.8826466   -7.3641871    0.0000000  0.00    0.0005487    0.0011458   -0.0000000
 H    7.5872048   -9.4747298    0.0000000  0.00    0.0010389    0.0004598   -0.0000000
 H    5.1570424   -9.4338450    0.0000000  0.00    0.0004325    0.0003286   -0.0000000
 H    8.9353968   -4.9288184    0.0000000  0.00   -0.0018786    0.0005684   -0.0000000
 H    9.0022944   -2.4976843    0.0000000  0.00   -0.0009660    0.0017572   -0.0000000
 H    9.0257478    0.0000000    0.0000000  0.00   -0.0002332   -0.0000000   -0.0000000
 H    3.2455132   -9.3542334    0.0000000  0.00   -0.0008135    0.0007819   -0.0000000
 H    0.8723329   -9.2570358    0.0000000  0.00   -0.0005210   -0.0005479   -0.0000000
 C   -7.1341690    6.1005119    0.0000000  0.00    0.0003308   -0.0014051   -0.0000000
 C   -5.6937517    6.0662311    0.0000000  0.00   -0.0020222   -0.0009045   -0.0000000
 C   -7.7989441    7.3473872    0.0000000  0.00   -0.0014262   -0.0004289   -0.0000000
 C   -4.9715184    7.2778169    0.0000000  0.00    0.0001159   -0.0012183   -0.0000000
 C   -7.0748466    8.5194255    0.0000000  0.00    0.0002715   -0.0007531   -0.0000000
 C   -5.6844684    8.4912600    0.0000000  0.00   -0.0009405   -0.0006431   -0.0000000
 C   -7.1952090    3.6633957    0.0000000  0.00   -0.0007041   -0.0005150   -0.0000000
 C   -5.7480748    3.6305958    0.0000000  0.00   -0.0010775    0.0025195   -0.0000000
 C   -7.8511838    4.9011177    0.0000000  0.00    0.0013169    0.0005624   -0.0000000
 C   -4.9972569    4.8193312    0.0000000  0.00    0.0001592   -0.0021105   -0.0000000
 C   -7.2537839    1.2269768    0.0000000  0.00   -0.0001885    0.0009551   -0.0000000
 C   -5.8254034    1.2187487    0.0000000  0.00    0.0000770    0.0000289   -0.0000000
 C   -7.9178688    2.4648319    0.0000000  0.00    0.0010487    0.0009589   -0.0000000
 C   -5.0704168    2.4045023    0.0000000  0.00   -0.0003768   -0.0003233   -0.0000000
 C   -7.9402054    0.0000000    0.0000000  0.00   -0.0000350   -0.0000000   -0.0000000
 C   -5.1499951    0.0000000    0.0000000  0.00   -0.0027530   -0.0000000   -0.0000000
 C   -3.5685071    4.7624058    0.0000000  0.00   -0.0012562   -0.0005207   -0.0000000
 C   -2.8425183    5.9639756    0.0000000  0.00   -0.0003047    0.0007667   -0.0000000
 C   -3.5268098    7.2148146    0.0000000  0.00   -0.0012985   -0.0016652   -0.0000000
 C   -3.6367835    2.3634716    0.0000000  0.00   -0.0003175    0.0006382   -0.0000000
 C   -2.8648125    3.5168419    0.0000000  0.00    0.0007737    0.0002283   -0.0000000
 C   -3.7581319    0.0000000    0.0000000  0.00    0.0008361   -0.0000000   -0.0000000
 C   -2.9705737    1.1349461    0.0000000  0.00    0.0009159    0.0013527   -0.0000000
 C   -1.4182102    5.8786598    0.0000000  0.00    0.0006013   -0.0009752   -0.0000000
 C   -0.7141486    7.1018030    0.0000000  0.00   -0.0012271   -0.0006636   -0.0000000
 C   -2.7692621    8.3848886    0.0000000  0.00   -0.0004543    0.0002443   -0.0000000
 C   -1.4094255    8.3241162    0.0000000  0.00    0.0007280   -0.0014422   -0.0000000
 C   -1.4275743    3.3655637    0.0000000  0.00    0.0008233    0.0000383   -0.0000000
 C   -0.7136147    4.6020398    0.0000000  0.00   -0.0021817   -0.0009474   -0.0000000
 C   -1.5780509    0.8446677    0.0000000  0.00   -0.0002633   -0.0001664   -0.0000000
 C   -0.7443083    2.0152828    0.0000000  0.00   -0.0000480   -0.0002258   -0.0000000
 H   -8.8826466    7.3641871    0.0000000  0.00   -0.0005487   -0.0011458   -0.0000000
 H   -7.5872048    9.4747298    0.0000000  0.00   -0.0010389   -0.0004598   -0.0000000
 H   -5.1570424    9.4338450    0.0000000  0.00   -0.0004325   -0.0003286   -0.0000000
 H   -8.9353968    4.9288184    0.0000000  0.00    0.0018786   -0.0005684   -0.0000000
 H   -9.0022944    2.4976843    0.0000000  0.00    0.0009660   -0.0017572   -0.0000000
 H   -9.0257478    0.0000000    0.0000000  0.00    0.0002332   -0.0000000   -0.0000000
 H   -3.2455132    9.3542334    0.0000000  0.00    0.0008135   -0.0007819   -0.0000000
 H   -0.8723329    9.2570358    0.0000000  0.00    0.0005210    0.0005479   -0.0000000
 C    7.1341690    6.1005119    0.0000000  0.00   -0.0003308   -0.0014051   -0.0000000
 C    5.6937517    6.0662311    0.0000000  0.00    0.0020222   -0.0009045   -0.0000000
 C    7.7989441    7.3473872    0.0000000  0.00    0.0014262   -0.0004289   -0.0000000
 C    4.9715184    7.2778169    0.0000000  0.00   -0.0001159   -0.0012183   -0.0000000
 C    7.0748466    8.5194255    0.0000000  0.00   -0.0002715   -0.0007531   -0.0000000
 C    5.6844684    8.4912600    0.0000000  0.00    0.0009405   -0.0006431   -0.0000000
 C    7.1952090    3.6633957    0.0000000  0.00    0.0007041   -0.0005150   -0.0000000
 C    5.7480748    3.6305958    0.0000000  0.00    0.0010775    0.0025195   -0.0000000
 C    7.8511838    4.9011177    0.0000000  0.00   -0.0013169    0.0005624   -0.0000000
 C    4.9972569    4.8193312    0.0000000  0.00   -0.0001592   -0.0021105   -0.0000000
 C    7.2537839    1.2269768    0.0000000  0.00    0.0001885    0.0009551   -0.0000000
 C    5.8254034    1.2187487    0.0000000  0.00   -0.0000770    0.0000289   -0.0000000
 C    7.9178688    2.4648319    0.0000000  0.00   -0.0010487    0.0009589   -0.0000000
 C    5.0704168    2.4045023    0.0000000  0.00    0.0003768   -0.0003233   -0.0000000
 C    3.5685071    4.7624058    0.0000000  0.00    0.0012562   -0.0005207   -0.0000000
 C    2.8425183    5.9639756    0.0000000  0.00    0.0003047    0.0007667   -0.0000000
 C    3.5268098    7.2148146    0.0000000  0.00    0.0012985   -0.0016652   -0.0000000
 C    3.6367835    2.3634716    0.0000000  0.00    0.0003175    0.0006382   -0.0000000
 C    2.8648125    3.5168419    0.0000000  0.00   -0.0007737    0.0002283   -0.0000000
 C    2.9705737    1.1349461    0.0000000  0.00   -0.0009159    0.0013527   -0.0000000
 C    1.4182102    5.8786598    0.0000000  0.00   -0.0006013   -0.0009752   -0.0000000
 C    0.7141486    7.1018030    0.0000000  0.00    0.0012271   -0.0006636   -0.0000000
 C    2.7692621    8.3848886    0.0000000  0.00    0.0004543    0.0002443   -0.0000000
 C    1.4094255    8.3241162    0.0000000  0.00   -0.0007280   -0.0014422   -0.0000000
 C    1.4275743    3.3655637    0.0000000  0.00   -0.0008233    0.0000383   -0.0000000
 C    0.7136147    4.6020398    0.0000000  0.00    0.0021817   -0.0009474   -0.0000000
 C    1.5780509    0.8446677    0.0000000  0.00    0.0002633   -0.0001664   -0.0000000
 C    0.7443083    2.0152828    0.0000000  0.00    0.0000480   -0.0002258   -0.0000000
 H    8.8826466    7.3641871    0.0000000  0.00    0.0005487   -0.0011458   -0.0000000
 H    7.5872048    9.4747298    0.0000000  0.00    0.0010389   -0.0004598   -0.0000000
 H    5.1570424    9.4338450    0.0000000  0.00    0.0004325   -0.0003286   -0.0000000
 H    8.9353968    4.9288184    0.0000000  0.00   -0.0018786   -0.0005684   -0.0000000
 H    9.0022944    2.4976843    0.0000000  0.00   -0.0009660   -0.0017572   -0.0000000
 H    3.2455132    9.3542334    0.0000000  0.00   -0.0008135   -0.0007819   -0.0000000
 H    0.8723329    9.2570358    0.0000000  0.00   -0.0005210    0.0005479   -0.0000000
 C   -7.1341690   -6.1005119    0.0000000  0.00    0.0003308    0.0014051   -0.0000000
 C   -5.6937517   -6.0662311    0.0000000  0.00   -0.0020222    0.0009045   -0.0000000
 C   -7.7989441   -7.3473872    0.0000000  0.00   -0.0014262    0.0004289   -0.0000000
 C   -4.9715184   -7.2778169    0.0000000  0.00    0.0001159    0.0012183   -0.0000000
 C   -7.0748466   -8.5194255    0.0000000  0.00    0.0002715    0.0007531   -0.0000000
 C   -5.6844684   -8.4912600    0.0000000  0.00   -0.0009405    0.0006431   -0.0000000
 C   -7.1952090   -3.6633957    0.0000000  0.00   -0.0007041    0.0005150   -0.0000000
 C   -5.7480748   -3.6305958    0.0000000  0.00   -0.0010775   -0.0025195   -0.0000000
 C   -7.8511838   -4.9011177    0.0000000  0.00    0.0013169   -0.0005624   -0.0000000
 C   -4.9972569   -4.8193312    0.0000000  0.00    0.0001592    0.0021105   -0.0000000
 C   -7.2537839   -1.2269768    0.0000000  0.00   -0.0001885   -0.0009551   -0.0000000
 C   -5.8254034   -1.2187487    0.0000000  0.00    0.0000770   -0.0000289   -0.0000000
 C   -7.9178688   -2.4648319    0.0000000  0.00    0.0010487   -0.0009589   -0.0000000
 C   -5.0704168   -2.4045023    0.0000000  0.00   -0.0003768    0.0003233   -0.0000000
 C   -3.5685071   -4.7624058    0.0000000  0.00   -0.0012562    0.0005207   -0.0000000
 C   -2.8425183   -5.9639756    0.0000000  0.00   -0.0003047   -0.0007667   -0.0000000
 C   -3.5268098   -7.2148146    0.0000000  0.00   -0.0012985    0.0016652   -0.0000000
 C   -3.6367835   -2.3634716    0.0000000  0.00   -0.0003175   -0.0006382   -0.0000000
 C   -2.8648125   -3.5168419    0.0000000  0.00    0.0007737   -0.0002283   -0.0000000
 C   -2.9705737   -1.1349461    0.0000000  0.00    0.0009159   -0.0013527   -0.0000000
 C   -1.4182102   -5.8786598    0.0000000  0.00    0.0006013    0.0009752   -0.0000000
 C   -0.7141486   -7.1018030    0.0000000  0.00   -0.0012271    0.0006636   -0.0000000
 C   -2.7692621   -8.3848886    0.0000000  0.00   -0.0004543   -0.0002443   -0.0000000
 C   -1.4094255   -8.3241162    0.0000000  0.00    0.0007280    0.0014422   -0.0000000
 C   -1.4275743   -3.3655637    0.0000000  0.00    0.0008233   -0.0000383   -0.0000000
 C   -0.7136147   -4.6020398    0.0000000  0.00   -0.0021817    0.0009474   -0.0000000
 C   -1.5780509   -0.8446677    0.0000000  0.00   -0.0002633    0.0001664   -0.0000000
 C   -0.7443083   -2.0152828    0.0000000  0.00   -0.0000480    0.0002258   -0.0000000
 H   -8.8826466   -7.3641871    0.0000000  0.00   -0.0005487    0.0011458   -0.0000000
 H   -7.5872048   -9.4747298    0.0000000  0.00   -0.0010389    0.0004598   -0.0000000
 H   -5.1570424   -9.4338450    0.0000000  0.00   -0.0004325    0.0003286   -0.0000000
 H   -8.9353968   -4.9288184    0.0000000  0.00    0.0018786    0.0005684   -0.0000000
 H   -9.0022944   -2.4976843    0.0000000  0.00    0.0009660    0.0017572   -0.0000000
 H   -3.2455132   -9.3542334    0.0000000  0.00    0.0008135    0.0007819   -0.0000000
 H   -0.8723329   -9.2570358    0.0000000  0.00    0.0005210   -0.0005479   -0.0000000
