148
 Energy =   -4513.3919868260
 C    7.1186669   -6.1078892    0.0000000  0.00    0.0000965    0.0007636   -0.0000000
 C    5.6831071   -6.0731219    0.0000000  0.00    0.0007387    0.0011833   -0.0000000
 C    7.7817087   -7.3547463    0.0000000  0.00    0.0006118    0.0005136   -0.0000000
 C    4.9601543   -7.2833310    0.0000000  0.00    0.0009270    0.0004665   -0.0000000
 C    7.0587315   -8.5292598    0.0000000  0.00    0.0007266    0.0007506   -0.0000000
 C    5.6695973   -8.5005982    0.0000000  0.00    0.0005688    0.0003801   -0.0000000
 C    7.1877309   -3.6715800    0.0000000  0.00    0.0001989    0.0002038   -0.0000000
 C    5.7485268   -3.6380789    0.0000000  0.00    0.0003755   -0.0001856   -0.0000000
 C    7.8367311   -4.9072432    0.0000000  0.00   -0.0008167   -0.0008254   -0.0000000
 C    4.9928364   -4.8252308    0.0000000  0.00   -0.0018512   -0.0001118   -0.0000000
 C    7.2659775   -1.2335670    0.0000000  0.00   -0.0006833   -0.0001529   -0.0000000
 C    5.8326708   -1.2244483    0.0000000  0.00   -0.0001643   -0.0008822   -0.0000000
 C    7.9162642   -2.4664581    0.0000000  0.00   -0.0001272    0.0001537   -0.0000000
 C    5.0739264   -2.4058937    0.0000000  0.00   -0.0008880    0.0012898   -0.0000000
 C    7.9532789    0.0000000    0.0000000  0.00   -0.0006534   -0.0000000   -0.0000000
 C    5.1544362    0.0000000    0.0000000  0.00    0.0001549   -0.0000000   -0.0000000
 C    3.5654314   -4.7648681    0.0000000  0.00    0.0012456    0.0003974   -0.0000000
 C    2.8382120   -5.9652787    0.0000000  0.00    0.0009062   -0.0000950   -0.0000000
 C    3.5204814   -7.2175133    0.0000000  0.00    0.0003239   -0.0002672   -0.0000000
 C    3.6384343   -2.3628508    0.0000000  0.00    0.0016015   -0.0016545   -0.0000000
 C    2.8617601   -3.5135228    0.0000000  0.00   -0.0006362    0.0000630   -0.0000000
 C    3.7669234    0.0000000    0.0000000  0.00   -0.0008789   -0.0000000   -0.0000000
 C    2.9738425   -1.1343863    0.0000000  0.00   -0.0004412    0.0014305   -0.0000000
 C    1.4147018   -5.8786728    0.0000000  0.00   -0.0003575    0.0009269   -0.0000000
 C    0.7109635   -7.1000770    0.0000000  0.00    0.0010518   -0.0007167   -0.0000000
 C    2.7610783   -8.3912214    0.0000000  0.00    0.0004810    0.0003157   -0.0000000
 C    1.4059296   -8.3286915    0.0000000  0.00   -0.0005069    0.0006837   -0.0000000
 C    1.4274871   -3.3599963    0.0000000  0.00    0.0000282   -0.0000509   -0.0000000
 C    0.7101267   -4.6023917    0.0000000  0.00    0.0001244   -0.0000444   -0.0000000
 C    1.5831886   -0.8410048    0.0000000  0.00    0.0003881   -0.0005186   -0.0000000
 C    0.7438433   -2.0146442    0.0000000  0.00    0.0001278   -0.0003314   -0.0000000
 H    8.8655516   -7.3722571    0.0000000  0.00    0.0000912    0.0011946   -0.0000000
 H    7.5724411   -9.4837320    0.0000000  0.00    0.0005133    0.0002877   -0.0000000
 H    5.1410063   -9.4424261    0.0000000  0.00    0.0009399    0.0010505   -0.0000000
 H    8.9209760   -4.9384897    0.0000000  0.00   -0.0003831    0.0004069   -0.0000000
 H    9.0002602   -2.5068933    0.0000000  0.00   -0.0003912    0.0011460   -0.0000000
 H    9.0379289    0.0000000    0.0000000  0.00    0.0004241   -0.0000000   -0.0000000
 H    3.2380692   -9.3597000    0.0000000  0.00   -0.0003744   -0.0005501   -0.0000000
 H    0.8670834   -9.2601387    0.0000000  0.00   -0.0006490   -0.0003168   -0.0000000
 C   -7.1186669    6.1078892    0.0000000  0.00   -0.0000965   -0.0007636   -0.0000000
 C   -5.6831071    6.0731219    0.0000000  0.00   -0.0007387   -0.0011833   -0.0000000
 C   -7.7817087    7.3547463    0.0000000  0.00   -0.0006118   -0.0005136   -0.0000000
 C   -4.9601543    7.2833310    0.0000000  0.00   -0.0009270   -0.0004665   -0.0000000
 C   -7.0587315    8.5292598    0.0000000  0.00   -0.0007266   -0.0007506   -0.0000000
 C   -5.6695973    8.5005982    0.0000000  0.00   -0.0005688   -0.0003801   -0.0000000
 C   -7.1877309    3.6715800    0.0000000  0.00   -0.0001989   -0.0002038   -0.0000000
 C   -5.7485268    3.6380789    0.0000000  0.00   -0.0003755    0.0001856   -0.0000000
 C   -7.8367311    4.9072432    0.0000000  0.00    0.0008167    0.0008254   -0.0000000
 C   -4.9928364    4.8252308    0.0000000  0.00    0.0018512    0.0001118   -0.0000000
 C   -7.2659775    1.2335670    0.0000000  0.00    0.0006833    0.0001529   -0.0000000
 C   -5.8326708    1.2244483    0.0000000  0.00    0.0001643    0.0008822   -0.0000000
 C   -7.9162642    2.4664581    0.0000000  0.00    0.0001272   -0.0001537   -0.0000000
 C   -5.0739264    2.4058937    0.0000000  0.00    0.0008880   -0.0012898   -0.0000000
 C   -7.9532789    0.0000000    0.0000000  0.00    0.0006534   -0.0000000   -0.0000000
 C   -5.1544362    0.0000000    0.0000000  0.00   -0.0001549   -0.0000000   -0.0000000
 C   -3.5654314    4.7648681    0.0000000  0.00   -0.0012456   -0.0003974   -0.0000000
 C   -2.8382120    5.9652787    0.0000000  0.00   -0.0009062    0.0000950   -0.0000000
 C   -3.5204814    7.2175133    0.0000000  0.00   -0.0003239    0.0002672   -0.0000000
 C   -3.6384343    2.3628508    0.0000000  0.00   -0.0016015    0.0016545   -0.0000000
 C   -2.8617601    3.5135228    0.0000000  0.00    0.0006362   -0.0000630   -0.0000000
 C   -3.7669234    0.0000000    0.0000000  0.00    0.0008789   -0.0000000   -0.0000000
 C   -2.9738425    1.1343863    0.0000000  0.00    0.0004412   -0.0014305   -0.0000000
 C   -1.4147018    5.8786728    0.0000000  0.00    0.0003575   -0.0009269   -0.0000000
 C   -0.7109635    7.1000770    0.0000000  0.00   -0.0010518    0.0007167   -0.0000000
 C   -2.7610783    8.3912214    0.0000000  0.00   -0.0004810   -0.0003157   -0.0000000
 C   -1.4059296    8.3286915    0.0000000  0.00    0.0005069   -0.0006837   -0.0000000
 C   -1.4274871    3.3599963    0.0000000  0.00   -0.0000282    0.0000509   -0.0000000
 C   -0.7101267    4.6023917    0.0000000  0.00   -0.0001244    0.0000444   -0.0000000
 C   -1.5831886    0.8410048    0.0000000  0.00   -0.0003881    0.0005186   -0.0000000
 C   -0.7438433    2.0146442    0.0000000  0.00   -0.0001278    0.0003314   -0.0000000
 H   -8.8655516    7.3722571    0.0000000  0.00   -0.0000912   -0.0011946   -0.0000000
 H   -7.5724411    9.4837320    0.0000000  0.00   -0.0005133   -0.0002877   -0.0000000
 H   -5.1410063    9.4424261    0.0000000  0.00   -0.0009399   -0.0010505   -0.0000000
 H   -8.9209760    4.9384897    0.0000000  0.00    0.0003831   -0.0004069   -0.0000000
 H   -9.0002602    2.5068933    0.0000000  0.00    0.0003912   -0.0011460   -0.0000000
 H   -9.0379289    0.0000000    0.0000000  0.00   -0.0004241   -0.0000000   -0.0000000
 H   -3.2380692    9.3597000    0.0000000  0.00    0.0003744    0.0005501   -0.0000000
 H   -0.8670834    9.2601387    0.0000000  0.00    0.0006490    0.0003168   -0.0000000
 C    7.1186669    6.1078892    0.0000000  0.00    0.0000965   -0.0007636   -0.0000000
 C    5.6831071    6.0731219    0.0000000  0.00    0.0007387   -0.0011833   -0.0000000
 C    7.7817087    7.3547463    0.0000000  0.00    0.0006118   -0.0005136   -0.0000000
 C    4.9601543    7.2833310    0.0000000  0.00    0.0009270   -0.0004665   -0.0000000
 C    7.0587315    8.5292598    0.0000000  0.00    0.0007266   -0.0007506   -0.0000000
 C    5.6695973    8.5005982    0.0000000  0.00    0.0005688   -0.0003801   -0.0000000
 C    7.1877309    3.6715800    0.0000000  0.00    0.0001989   -0.0002038   -0.0000000
 C    5.7485268    3.6380789    0.0000000  0.00    0.0003755    0.0001856   -0.0000000
 C    7.8367311    4.9072432    0.0000000  0.00   -0.0008167    0.0008254   -0.0000000
 C    4.9928364    4.8252308    0.0000000  0.00   -0.0018512    0.0001118   -0.0000000
 C    7.2659775    1.2335670    0.0000000  0.00   -0.0006833    0.0001529   -0.0000000
 C    5.8326708    1.2244483    0.0000000  0.00   -0.0001643    0.0008822   -0.0000000
 C    7.9162642    2.4664581    0.0000000  0.00   -0.0001272   -0.0001537   -0.0000000
 C    5.0739264    2.4058937    0.0000000  0.00   -0.0008880   -0.0012898   -0.0000000
 C    3.5654314    4.7648681    0.0000000  0.00    0.0012456   -0.0003974   -0.0000000
 C    2.8382120    5.9652787    0.0000000  0.00    0.0009062    0.0000950   -0.0000000
 C    3.5204814    7.2175133    0.0000000  0.00    0.0003239    0.0002672   -0.0000000
 C    3.6384343    2.3628508    0.0000000  0.00    0.0016015    0.0016545   -0.0000000
 C    2.8617601    3.5135228    0.0000000  0.00   -0.0006362   -0.0000630   -0.0000000
 C    2.9738425    1.1343863    0.0000000  0.00   -0.0004412   -0.0014305   -0.0000000
 C    1.4147018    5.8786728    0.0000000  0.00   -0.0003575   -0.0009269   -0.0000000
 C    0.7109635    7.1000770    0.0000000  0.00    0.0010518    0.0007167   -0.0000000
 C    2.7610783    8.3912214    0.0000000  0.00    0.0004810   -0.0003157   -0.0000000
 C    1.4059296    8.3286915    0.0000000  0.00   -0.0005069   -0.0006837   -0.0000000
 C    1.4274871    3.3599963    0.0000000  0.00    0.0000282    0.0000509   -0.0000000
 C    0.7101267    4.6023917    0.0000000  0.00    0.0001244    0.0000444   -0.0000000
 C    1.5831886    0.8410048    0.0000000  0.00    0.0003881    0.0005186   -0.0000000
 C    0.7438433    2.0146442    0.0000000  0.00    0.0001278    0.0003314   -0.0000000
 H    8.8655516    7.3722571    0.0000000  0.00    0.0000912   -0.0011946   -0.0000000
 H    7.5724411    9.4837320    0.0000000  0.00    0.0005133   -0.0002877   -0.0000000
 H    5.1410063    9.4424261    0.0000000  0.00    0.0009399   -0.0010505   -0.0000000
 H    8.9209760    4.9384897    0.0000000  0.00   -0.0003831   -0.0004069   -0.0000000
 H    9.0002602    2.5068933    0.0000000  0.00   -0.0003912   -0.0011460   -0.0000000
 H    3.2380692    9.3597000    0.0000000  0.00   -0.0003744    0.0005501   -0.0000000
 H    0.8670834    9.2601387    0.0000000  0.00   -0.0006490    0.0003168   -0.0000000
 C   -7.1186669   -6.1078892    0.0000000  0.00   -0.0000965    0.0007636   -0.0000000
 C   -5.6831071   -6.0731219    0.0000000  0.00   -0.0007387    0.0011833   -0.0000000
 C   -7.7817087   -7.3547463    0.0000000  0.00   -0.0006118    0.0005136   -0.0000000
 C   -4.9601543   -7.2833310    0.0000000  0.00   -0.0009270    0.0004665   -0.0000000
 C   -7.0587315   -8.5292598    0.0000000  0.00   -0.0007266    0.0007506   -0.0000000
 C   -5.6695973   -8.5005982    0.0000000  0.00   -0.0005688    0.0003801   -0.0000000
 C   -7.1877309   -3.6715800    0.0000000  0.00   -0.0001989    0.0002038   -0.0000000
 C   -5.7485268   -3.6380789    0.0000000  0.00   -0.0003755   -0.0001856   -0.0000000
 C   -7.8367311   -4.9072432    0.0000000  0.00    0.0008167   -0.0008254   -0.0000000
 C   -4.9928364   -4.8252308    0.0000000  0.00    0.0018512   -0.0001118   -0.0000000
 C   -7.2659775   -1.2335670    0.0000000  0.00    0.0006833   -0.0001529   -0.0000000
 C   -5.8326708   -1.2244483    0.0000000  0.00    0.0001643   -0.0008822   -0.0000000
 C   -7.9162642   -2.4664581    0.0000000  0.00    0.0001272    0.0001537   -0.0000000
 C   -5.0739264   -2.4058937    0.0000000  0.00    0.0008880    0.0012898   -0.0000000
 C   -3.5654314   -4.7648681    0.0000000  0.00   -0.0012456    0.0003974   -0.0000000
 C   -2.8382120   -5.9652787    0.0000000  0.00   -0.0009062   -0.0000950   -0.0000000
 C   -3.5204814   -7.2175133    0.0000000  0.00   -0.0003239   -0.0002672   -0.0000000
 C   -3.6384343   -2.3628508    0.0000000  0.00   -0.0016015   -0.0016545   -0.0000000
 C   -2.8617601   -3.5135228    0.0000000  0.00    0.0006362    0.0000630   -0.0000000
 C   -2.9738425   -1.1343863    0.0000000  0.00    0.0004412    0.0014305   -0.0000000
 C   -1.4147018   -5.8786728    0.0000000  0.00    0.0003575    0.0009269   -0.0000000
 C   -0.7109635   -7.1000770    0.0000000  0.00   -0.0010518   -0.0007167   -0.0000000
 C   -2.7610783   -8.3912214    0.0000000  0.00   -0.0004810    0.0003157   -0.0000000
 C   -1.4059296   -8.3286915    0.0000000  0.00    0.0005069    0.0006837   -0.0000000
 C   -1.4274871   -3.3599963    0.0000000  0.00   -0.0000282   -0.0000509   -0.0000000
 C   -0.7101267   -4.6023917    0.0000000  0.00   -0.0001244   -0.0000444   -0.0000000
 C   -1.5831886   -0.8410048    0.0000000  0.00   -0.0003881   -0.0005186   -0.0000000
 C   -0.7438433   -2.0146442    0.0000000  0.00   -0.0001278   -0.0003314   -0.0000000
 H   -8.8655516   -7.3722571    0.0000000  0.00   -0.0000912    0.0011946   -0.0000000
 H   -7.5724411   -9.4837320    0.0000000  0.00   -0.0005133    0.0002877   -0.0000000
 H   -5.1410063   -9.4424261    0.0000000  0.00   -0.0009399    0.0010505   -0.0000000
 H   -8.9209760   -4.9384897    0.0000000  0.00    0.0003831    0.0004069   -0.0000000
 H   -9.0002602   -2.5068933    0.0000000  0.00    0.0003912    0.0011460   -0.0000000
 H   -3.2380692   -9.3597000    0.0000000  0.00    0.0003744   -0.0005501   -0.0000000
 H   -0.8670834   -9.2601387    0.0000000  0.00    0.0006490   -0.0003168   -0.0000000
