148
 Energy =   -4513.3952569430
 C    7.1141611   -6.1023824    0.0000000  0.00    0.0005061   -0.0000038   -0.0000000
 C    5.6801833   -6.0650002    0.0000000  0.00    0.0013511   -0.0015992   -0.0000000
 C    7.7719373   -7.3525249    0.0000000  0.00    0.0008765   -0.0002735   -0.0000000
 C    4.9577051   -7.2744864    0.0000000  0.00    0.0006462    0.0001465   -0.0000000
 C    7.0490264   -8.5245334    0.0000000  0.00   -0.0002378    0.0003178   -0.0000000
 C    5.6574093   -8.4918224    0.0000000  0.00   -0.0004751   -0.0002985   -0.0000000
 C    7.1993848   -3.6665899    0.0000000  0.00   -0.0000483    0.0005184   -0.0000000
 C    5.7554501   -3.6341299    0.0000000  0.00   -0.0004341   -0.0016636   -0.0000000
 C    7.8366197   -4.9071069    0.0000000  0.00   -0.0011062   -0.0009151   -0.0000000
 C    4.9970977   -4.8157728    0.0000000  0.00    0.0005888   -0.0001298   -0.0000000
 C    7.2912259   -1.2302959    0.0000000  0.00   -0.0002300   -0.0014162   -0.0000000
 C    5.8520579   -1.2231214    0.0000000  0.00   -0.0011647   -0.0009036   -0.0000000
 C    7.9299860   -2.4679997    0.0000000  0.00   -0.0025285   -0.0019045   -0.0000000
 C    5.0834782   -2.3981968    0.0000000  0.00    0.0009704    0.0008063   -0.0000000
 C    7.9704009    0.0000000    0.0000000  0.00    0.0014808   -0.0000000   -0.0000000
 C    5.1717788    0.0000000    0.0000000  0.00    0.0023244   -0.0000000   -0.0000000
 C    3.5632451   -4.7469837    0.0000000  0.00   -0.0000957   -0.0003532   -0.0000000
 C    2.8351284   -5.9505423    0.0000000  0.00    0.0022874   -0.0003138   -0.0000000
 C    3.5156161   -7.2024749    0.0000000  0.00   -0.0009330   -0.0006287   -0.0000000
 C    3.6453186   -2.3490210    0.0000000  0.00   -0.0006649    0.0036240   -0.0000000
 C    2.8632732   -3.5028306    0.0000000  0.00    0.0006851   -0.0023957   -0.0000000
 C    3.7835717    0.0000000    0.0000000  0.00   -0.0004242   -0.0000000   -0.0000000
 C    2.9828704   -1.1264347    0.0000000  0.00   -0.0013857   -0.0015966   -0.0000000
 C    1.4145240   -5.8609626    0.0000000  0.00   -0.0001711   -0.0013533   -0.0000000
 C    0.7108290   -7.0837730    0.0000000  0.00    0.0007931   -0.0012684   -0.0000000
 C    2.7585078   -8.3749136    0.0000000  0.00    0.0003789   -0.0007228   -0.0000000
 C    1.4027103   -8.3101416    0.0000000  0.00   -0.0001138    0.0022510   -0.0000000
 C    1.4241863   -3.3403644    0.0000000  0.00    0.0005950   -0.0006167   -0.0000000
 C    0.7101573   -4.5861288    0.0000000  0.00   -0.0007236    0.0001946   -0.0000000
 C    1.5842756   -0.8052586    0.0000000  0.00    0.0002558    0.0010251   -0.0000000
 C    0.7359687   -2.0001364    0.0000000  0.00   -0.0008224    0.0008421   -0.0000000
 H    8.8559438   -7.3721268    0.0000000  0.00   -0.0012294    0.0000652   -0.0000000
 H    7.5609401   -9.4799264    0.0000000  0.00   -0.0010019    0.0003755   -0.0000000
 H    5.1272384   -9.4326741    0.0000000  0.00    0.0003983    0.0020980   -0.0000000
 H    8.9205986   -4.9454754    0.0000000  0.00    0.0012274    0.0010362   -0.0000000
 H    9.0135535   -2.5138557    0.0000000  0.00    0.0000129   -0.0026015   -0.0000000
 H    9.0550822    0.0000000    0.0000000  0.00   -0.0022186   -0.0000000   -0.0000000
 H    3.2348825   -9.3433462    0.0000000  0.00   -0.0012181    0.0015629   -0.0000000
 H    0.8639965   -9.2416759    0.0000000  0.00   -0.0002090   -0.0000700   -0.0000000
 C   -7.1141611    6.1023824    0.0000000  0.00   -0.0005061    0.0000038   -0.0000000
 C   -5.6801833    6.0650002    0.0000000  0.00   -0.0013511    0.0015992   -0.0000000
 C   -7.7719373    7.3525249    0.0000000  0.00   -0.0008765    0.0002735   -0.0000000
 C   -4.9577051    7.2744864    0.0000000  0.00   -0.0006462   -0.0001465   -0.0000000
 C   -7.0490264    8.5245334    0.0000000  0.00    0.0002378   -0.0003178   -0.0000000
 C   -5.6574093    8.4918224    0.0000000  0.00    0.0004751    0.0002985   -0.0000000
 C   -7.1993848    3.6665899    0.0000000  0.00    0.0000483   -0.0005184   -0.0000000
 C   -5.7554501    3.6341299    0.0000000  0.00    0.0004341    0.0016636   -0.0000000
 C   -7.8366197    4.9071069    0.0000000  0.00    0.0011062    0.0009151   -0.0000000
 C   -4.9970977    4.8157728    0.0000000  0.00   -0.0005888    0.0001298   -0.0000000
 C   -7.2912259    1.2302959    0.0000000  0.00    0.0002300    0.0014162   -0.0000000
 C   -5.8520579    1.2231214    0.0000000  0.00    0.0011647    0.0009036   -0.0000000
 C   -7.9299860    2.4679997    0.0000000  0.00    0.0025285    0.0019045   -0.0000000
 C   -5.0834782    2.3981968    0.0000000  0.00   -0.0009704   -0.0008063   -0.0000000
 C   -7.9704009    0.0000000    0.0000000  0.00   -0.0014808   -0.0000000   -0.0000000
 C   -5.1717788    0.0000000    0.0000000  0.00   -0.0023244   -0.0000000   -0.0000000
 C   -3.5632451    4.7469837    0.0000000  0.00    0.0000957    0.0003532   -0.0000000
 C   -2.8351284    5.9505423    0.0000000  0.00   -0.0022874    0.0003138   -0.0000000
 C   -3.5156161    7.2024749    0.0000000  0.00    0.0009330    0.0006287   -0.0000000
 C   -3.6453186    2.3490210    0.0000000  0.00    0.0006649   -0.0036240   -0.0000000
 C   -2.8632732    3.5028306    0.0000000  0.00   -0.0006851    0.0023957   -0.0000000
 C   -3.7835717    0.0000000    0.0000000  0.00    0.0004242   -0.0000000   -0.0000000
 C   -2.9828704    1.1264347    0.0000000  0.00    0.0013857    0.0015966   -0.0000000
 C   -1.4145240    5.8609626    0.0000000  0.00    0.0001711    0.0013533   -0.0000000
 C   -0.7108290    7.0837730    0.0000000  0.00   -0.0007931    0.0012684   -0.0000000
 C   -2.7585078    8.3749136    0.0000000  0.00   -0.0003789    0.0007228   -0.0000000
 C   -1.4027103    8.3101416    0.0000000  0.00    0.0001138   -0.0022510   -0.0000000
 C   -1.4241863    3.3403644    0.0000000  0.00   -0.0005950    0.0006167   -0.0000000
 C   -0.7101573    4.5861288    0.0000000  0.00    0.0007236   -0.0001946   -0.0000000
 C   -1.5842756    0.8052586    0.0000000  0.00   -0.0002558   -0.0010251   -0.0000000
 C   -0.7359687    2.0001364    0.0000000  0.00    0.0008224   -0.0008421   -0.0000000
 H   -8.8559438    7.3721268    0.0000000  0.00    0.0012294   -0.0000652   -0.0000000
 H   -7.5609401    9.4799264    0.0000000  0.00    0.0010019   -0.0003755   -0.0000000
 H   -5.1272384    9.4326741    0.0000000  0.00   -0.0003983   -0.0020980   -0.0000000
 H   -8.9205986    4.9454754    0.0000000  0.00   -0.0012274   -0.0010362   -0.0000000
 H   -9.0135535    2.5138557    0.0000000  0.00   -0.0000129    0.0026015   -0.0000000
 H   -9.0550822    0.0000000    0.0000000  0.00    0.0022186   -0.0000000   -0.0000000
 H   -3.2348825    9.3433462    0.0000000  0.00    0.0012181   -0.0015629   -0.0000000
 H   -0.8639965    9.2416759    0.0000000  0.00    0.0002090    0.0000700   -0.0000000
 C    7.1141611    6.1023824    0.0000000  0.00    0.0005061    0.0000038   -0.0000000
 C    5.6801833    6.0650002    0.0000000  0.00    0.0013511    0.0015992   -0.0000000
 C    7.7719373    7.3525249    0.0000000  0.00    0.0008765    0.0002735   -0.0000000
 C    4.9577051    7.2744864    0.0000000  0.00    0.0006462   -0.0001465   -0.0000000
 C    7.0490264    8.5245334    0.0000000  0.00   -0.0002378   -0.0003178   -0.0000000
 C    5.6574093    8.4918224    0.0000000  0.00   -0.0004751    0.0002985   -0.0000000
 C    7.1993848    3.6665899    0.0000000  0.00   -0.0000483   -0.0005184   -0.0000000
 C    5.7554501    3.6341299    0.0000000  0.00   -0.0004341    0.0016636   -0.0000000
 C    7.8366197    4.9071069    0.0000000  0.00   -0.0011062    0.0009151   -0.0000000
 C    4.9970977    4.8157728    0.0000000  0.00    0.0005888    0.0001298   -0.0000000
 C    7.2912259    1.2302959    0.0000000  0.00   -0.0002300    0.0014162   -0.0000000
 C    5.8520579    1.2231214    0.0000000  0.00   -0.0011647    0.0009036   -0.0000000
 C    7.9299860    2.4679997    0.0000000  0.00   -0.0025285    0.0019045   -0.0000000
 C    5.0834782    2.3981968    0.0000000  0.00    0.0009704   -0.0008063   -0.0000000
 C    3.5632451    4.7469837    0.0000000  0.00   -0.0000957    0.0003532   -0.0000000
 C    2.8351284    5.9505423    0.0000000  0.00    0.0022874    0.0003138   -0.0000000
 C    3.5156161    7.2024749    0.0000000  0.00   -0.0009330    0.0006287   -0.0000000
 C    3.6453186    2.3490210    0.0000000  0.00   -0.0006649   -0.0036240   -0.0000000
 C    2.8632732    3.5028306    0.0000000  0.00    0.0006851    0.0023957   -0.0000000
 C    2.9828704    1.1264347    0.0000000  0.00   -0.0013857    0.0015966   -0.0000000
 C    1.4145240    5.8609626    0.0000000  0.00   -0.0001711    0.0013533   -0.0000000
 C    0.7108290    7.0837730    0.0000000  0.00    0.0007931    0.0012684   -0.0000000
 C    2.7585078    8.3749136    0.0000000  0.00    0.0003789    0.0007228   -0.0000000
 C    1.4027103    8.3101416    0.0000000  0.00   -0.0001138   -0.0022510   -0.0000000
 C    1.4241863    3.3403644    0.0000000  0.00    0.0005950    0.0006167   -0.0000000
 C    0.7101573    4.5861288    0.0000000  0.00   -0.0007236   -0.0001946   -0.0000000
 C    1.5842756    0.8052586    0.0000000  0.00    0.0002558   -0.0010251   -0.0000000
 C    0.7359687    2.0001364    0.0000000  0.00   -0.0008224   -0.0008421   -0.0000000
 H    8.8559438    7.3721268    0.0000000  0.00   -0.0012294   -0.0000652   -0.0000000
 H    7.5609401    9.4799264    0.0000000  0.00   -0.0010019   -0.0003755   -0.0000000
 H    5.1272384    9.4326741    0.0000000  0.00    0.0003983   -0.0020980   -0.0000000
 H    8.9205986    4.9454754    0.0000000  0.00    0.0012274   -0.0010362   -0.0000000
 H    9.0135535    2.5138557    0.0000000  0.00    0.0000129    0.0026015   -0.0000000
 H    3.2348825    9.3433462    0.0000000  0.00   -0.0012181   -0.0015629   -0.0000000
 H    0.8639965    9.2416759    0.0000000  0.00   -0.0002090    0.0000700   -0.0000000
 C   -7.1141611   -6.1023824    0.0000000  0.00   -0.0005061   -0.0000038   -0.0000000
 C   -5.6801833   -6.0650002    0.0000000  0.00   -0.0013511   -0.0015992   -0.0000000
 C   -7.7719373   -7.3525249    0.0000000  0.00   -0.0008765   -0.0002735   -0.0000000
 C   -4.9577051   -7.2744864    0.0000000  0.00   -0.0006462    0.0001465   -0.0000000
 C   -7.0490264   -8.5245334    0.0000000  0.00    0.0002378    0.0003178   -0.0000000
 C   -5.6574093   -8.4918224    0.0000000  0.00    0.0004751   -0.0002985   -0.0000000
 C   -7.1993848   -3.6665899    0.0000000  0.00    0.0000483    0.0005184   -0.0000000
 C   -5.7554501   -3.6341299    0.0000000  0.00    0.0004341   -0.0016636   -0.0000000
 C   -7.8366197   -4.9071069    0.0000000  0.00    0.0011062   -0.0009151   -0.0000000
 C   -4.9970977   -4.8157728    0.0000000  0.00   -0.0005888   -0.0001298   -0.0000000
 C   -7.2912259   -1.2302959    0.0000000  0.00    0.0002300   -0.0014162   -0.0000000
 C   -5.8520579   -1.2231214    0.0000000  0.00    0.0011647   -0.0009036   -0.0000000
 C   -7.9299860   -2.4679997    0.0000000  0.00    0.0025285   -0.0019045   -0.0000000
 C   -5.0834782   -2.3981968    0.0000000  0.00   -0.0009704    0.0008063   -0.0000000
 C   -3.5632451   -4.7469837    0.0000000  0.00    0.0000957   -0.0003532   -0.0000000
 C   -2.8351284   -5.9505423    0.0000000  0.00   -0.0022874   -0.0003138   -0.0000000
 C   -3.5156161   -7.2024749    0.0000000  0.00    0.0009330   -0.0006287   -0.0000000
 C   -3.6453186   -2.3490210    0.0000000  0.00    0.0006649    0.0036240   -0.0000000
 C   -2.8632732   -3.5028306    0.0000000  0.00   -0.0006851   -0.0023957   -0.0000000
 C   -2.9828704   -1.1264347    0.0000000  0.00    0.0013857   -0.0015966   -0.0000000
 C   -1.4145240   -5.8609626    0.0000000  0.00    0.0001711   -0.0013533   -0.0000000
 C   -0.7108290   -7.0837730    0.0000000  0.00   -0.0007931   -0.0012684   -0.0000000
 C   -2.7585078   -8.3749136    0.0000000  0.00   -0.0003789   -0.0007228   -0.0000000
 C   -1.4027103   -8.3101416    0.0000000  0.00    0.0001138    0.0022510   -0.0000000
 C   -1.4241863   -3.3403644    0.0000000  0.00   -0.0005950   -0.0006167   -0.0000000
 C   -0.7101573   -4.5861288    0.0000000  0.00    0.0007236    0.0001946   -0.0000000
 C   -1.5842756   -0.8052586    0.0000000  0.00   -0.0002558    0.0010251   -0.0000000
 C   -0.7359687   -2.0001364    0.0000000  0.00    0.0008224    0.0008421   -0.0000000
 H   -8.8559438   -7.3721268    0.0000000  0.00    0.0012294    0.0000652   -0.0000000
 H   -7.5609401   -9.4799264    0.0000000  0.00    0.0010019    0.0003755   -0.0000000
 H   -5.1272384   -9.4326741    0.0000000  0.00   -0.0003983    0.0020980   -0.0000000
 H   -8.9205986   -4.9454754    0.0000000  0.00   -0.0012274    0.0010362   -0.0000000
 H   -9.0135535   -2.5138557    0.0000000  0.00   -0.0000129   -0.0026015   -0.0000000
 H   -3.2348825   -9.3433462    0.0000000  0.00    0.0012181    0.0015629   -0.0000000
 H   -0.8639965   -9.2416759    0.0000000  0.00    0.0002090   -0.0000700   -0.0000000
