148
 Energy =   -4513.3950009050
 C    7.1269079   -6.1033938    0.0000000  0.00    0.0003278    0.0012679   -0.0000000
 C    5.6907795   -6.0680163    0.0000000  0.00   -0.0013577   -0.0001190   -0.0000000
 C    7.7877611   -7.3525104    0.0000000  0.00    0.0001608   -0.0000746   -0.0000000
 C    4.9677669   -7.2779880    0.0000000  0.00    0.0009578    0.0007338   -0.0000000
 C    7.0638356   -8.5233613    0.0000000  0.00    0.0018022    0.0003954   -0.0000000
 C    5.6718127   -8.4926089    0.0000000  0.00    0.0003901    0.0006057   -0.0000000
 C    7.2011865   -3.6672534    0.0000000  0.00   -0.0009672   -0.0007892   -0.0000000
 C    5.7564082   -3.6356377    0.0000000  0.00   -0.0022498    0.0006650   -0.0000000
 C    7.8462303   -4.9053366    0.0000000  0.00   -0.0008314   -0.0010763   -0.0000000
 C    5.0025680   -4.8191037    0.0000000  0.00    0.0002201    0.0005433   -0.0000000
 C    7.2779580   -1.2297575    0.0000000  0.00   -0.0003096   -0.0004128   -0.0000000
 C    5.8414676   -1.2221790    0.0000000  0.00   -0.0018142    0.0002532   -0.0000000
 C    7.9265340   -2.4668953    0.0000000  0.00    0.0007020    0.0005441   -0.0000000
 C    5.0815120   -2.4032013    0.0000000  0.00    0.0001809    0.0002344   -0.0000000
 C    7.9581192    0.0000000    0.0000000  0.00   -0.0005983   -0.0000000   -0.0000000
 C    5.1631688    0.0000000    0.0000000  0.00   -0.0009021   -0.0000000   -0.0000000
 C    3.5694455   -4.7557277    0.0000000  0.00    0.0004595    0.0001618   -0.0000000
 C    2.8409355   -5.9560913    0.0000000  0.00    0.0005287   -0.0001820   -0.0000000
 C    3.5229462   -7.2092911    0.0000000  0.00    0.0008375    0.0000868   -0.0000000
 C    3.6451974   -2.3587538    0.0000000  0.00    0.0008242    0.0004844   -0.0000000
 C    2.8681960   -3.5108727    0.0000000  0.00   -0.0006769   -0.0001668   -0.0000000
 C    3.7715207    0.0000000    0.0000000  0.00    0.0000551   -0.0000000   -0.0000000
 C    2.9805879   -1.1327512    0.0000000  0.00   -0.0001764    0.0010215   -0.0000000
 C    1.4179143   -5.8678028    0.0000000  0.00    0.0002922    0.0004812   -0.0000000
 C    0.7136607   -7.0903473    0.0000000  0.00   -0.0010909    0.0003246   -0.0000000
 C    2.7653018   -8.3768325    0.0000000  0.00   -0.0004859    0.0002748   -0.0000000
 C    1.4054829   -8.3123154    0.0000000  0.00    0.0008716   -0.0007658   -0.0000000
 C    1.4291295   -3.3567647    0.0000000  0.00    0.0015558    0.0009902   -0.0000000
 C    0.7144590   -4.5912976    0.0000000  0.00   -0.0001899   -0.0009543   -0.0000000
 C    1.5840026   -0.8367495    0.0000000  0.00    0.0005156    0.0001797   -0.0000000
 C    0.7454943   -2.0060468    0.0000000  0.00   -0.0001547   -0.0004770   -0.0000000
 H    8.8716076   -7.3715752    0.0000000  0.00   -0.0002310    0.0013097   -0.0000000
 H    7.5752647   -9.4791114    0.0000000  0.00    0.0004815    0.0002982   -0.0000000
 H    5.1428193   -9.4343541    0.0000000  0.00    0.0008932    0.0021841   -0.0000000
 H    8.9303942   -4.9382417    0.0000000  0.00   -0.0002401   -0.0006579   -0.0000000
 H    9.0104745   -2.5064620    0.0000000  0.00   -0.0006848    0.0003628   -0.0000000
 H    9.0430054    0.0000000    0.0000000  0.00   -0.0003877   -0.0000000   -0.0000000
 H    3.2397323   -9.3465781    0.0000000  0.00   -0.0001585   -0.0001575   -0.0000000
 H    0.8677514   -9.2447437    0.0000000  0.00   -0.0003728    0.0007415   -0.0000000
 C   -7.1269079    6.1033938    0.0000000  0.00   -0.0003278   -0.0012679   -0.0000000
 C   -5.6907795    6.0680163    0.0000000  0.00    0.0013577    0.0001190   -0.0000000
 C   -7.7877611    7.3525104    0.0000000  0.00   -0.0001608    0.0000746   -0.0000000
 C   -4.9677669    7.2779880    0.0000000  0.00   -0.0009578   -0.0007338   -0.0000000
 C   -7.0638356    8.5233613    0.0000000  0.00   -0.0018022   -0.0003954   -0.0000000
 C   -5.6718127    8.4926089    0.0000000  0.00   -0.0003901   -0.0006057   -0.0000000
 C   -7.2011865    3.6672534    0.0000000  0.00    0.0009672    0.0007892   -0.0000000
 C   -5.7564082    3.6356377    0.0000000  0.00    0.0022498   -0.0006650   -0.0000000
 C   -7.8462303    4.9053366    0.0000000  0.00    0.0008314    0.0010763   -0.0000000
 C   -5.0025680    4.8191037    0.0000000  0.00   -0.0002201   -0.0005433   -0.0000000
 C   -7.2779580    1.2297575    0.0000000  0.00    0.0003096    0.0004128   -0.0000000
 C   -5.8414676    1.2221790    0.0000000  0.00    0.0018142   -0.0002532   -0.0000000
 C   -7.9265340    2.4668953    0.0000000  0.00   -0.0007020   -0.0005441   -0.0000000
 C   -5.0815120    2.4032013    0.0000000  0.00   -0.0001809   -0.0002344   -0.0000000
 C   -7.9581192    0.0000000    0.0000000  0.00    0.0005983   -0.0000000   -0.0000000
 C   -5.1631688    0.0000000    0.0000000  0.00    0.0009021   -0.0000000   -0.0000000
 C   -3.5694455    4.7557277    0.0000000  0.00   -0.0004595   -0.0001618   -0.0000000
 C   -2.8409355    5.9560913    0.0000000  0.00   -0.0005287    0.0001820   -0.0000000
 C   -3.5229462    7.2092911    0.0000000  0.00   -0.0008375   -0.0000868   -0.0000000
 C   -3.6451974    2.3587538    0.0000000  0.00   -0.0008242   -0.0004844   -0.0000000
 C   -2.8681960    3.5108727    0.0000000  0.00    0.0006769    0.0001668   -0.0000000
 C   -3.7715207    0.0000000    0.0000000  0.00   -0.0000551   -0.0000000   -0.0000000
 C   -2.9805879    1.1327512    0.0000000  0.00    0.0001764   -0.0010215   -0.0000000
 C   -1.4179143    5.8678028    0.0000000  0.00   -0.0002922   -0.0004812   -0.0000000
 C   -0.7136607    7.0903473    0.0000000  0.00    0.0010909   -0.0003246   -0.0000000
 C   -2.7653018    8.3768325    0.0000000  0.00    0.0004859   -0.0002748   -0.0000000
 C   -1.4054829    8.3123154    0.0000000  0.00   -0.0008716    0.0007658   -0.0000000
 C   -1.4291295    3.3567647    0.0000000  0.00   -0.0015558   -0.0009902   -0.0000000
 C   -0.7144590    4.5912976    0.0000000  0.00    0.0001899    0.0009543   -0.0000000
 C   -1.5840026    0.8367495    0.0000000  0.00   -0.0005156   -0.0001797   -0.0000000
 C   -0.7454943    2.0060468    0.0000000  0.00    0.0001547    0.0004770   -0.0000000
 H   -8.8716076    7.3715752    0.0000000  0.00    0.0002310   -0.0013097   -0.0000000
 H   -7.5752647    9.4791114    0.0000000  0.00   -0.0004815   -0.0002982   -0.0000000
 H   -5.1428193    9.4343541    0.0000000  0.00   -0.0008932   -0.0021841   -0.0000000
 H   -8.9303942    4.9382417    0.0000000  0.00    0.0002401    0.0006579   -0.0000000
 H   -9.0104745    2.5064620    0.0000000  0.00    0.0006848   -0.0003628   -0.0000000
 H   -9.0430054    0.0000000    0.0000000  0.00    0.0003877   -0.0000000   -0.0000000
 H   -3.2397323    9.3465781    0.0000000  0.00    0.0001585    0.0001575   -0.0000000
 H   -0.8677514    9.2447437    0.0000000  0.00    0.0003728   -0.0007415   -0.0000000
 C    7.1269079    6.1033938    0.0000000  0.00    0.0003278   -0.0012679   -0.0000000
 C    5.6907795    6.0680163    0.0000000  0.00   -0.0013577    0.0001190   -0.0000000
 C    7.7877611    7.3525104    0.0000000  0.00    0.0001608    0.0000746   -0.0000000
 C    4.9677669    7.2779880    0.0000000  0.00    0.0009578   -0.0007338   -0.0000000
 C    7.0638356    8.5233613    0.0000000  0.00    0.0018022   -0.0003954   -0.0000000
 C    5.6718127    8.4926089    0.0000000  0.00    0.0003901   -0.0006057   -0.0000000
 C    7.2011865    3.6672534    0.0000000  0.00   -0.0009672    0.0007892   -0.0000000
 C    5.7564082    3.6356377    0.0000000  0.00   -0.0022498   -0.0006650   -0.0000000
 C    7.8462303    4.9053366    0.0000000  0.00   -0.0008314    0.0010763   -0.0000000
 C    5.0025680    4.8191037    0.0000000  0.00    0.0002201   -0.0005433   -0.0000000
 C    7.2779580    1.2297575    0.0000000  0.00   -0.0003096    0.0004128   -0.0000000
 C    5.8414676    1.2221790    0.0000000  0.00   -0.0018142   -0.0002532   -0.0000000
 C    7.9265340    2.4668953    0.0000000  0.00    0.0007020   -0.0005441   -0.0000000
 C    5.0815120    2.4032013    0.0000000  0.00    0.0001809   -0.0002344   -0.0000000
 C    3.5694455    4.7557277    0.0000000  0.00    0.0004595   -0.0001618   -0.0000000
 C    2.8409355    5.9560913    0.0000000  0.00    0.0005287    0.0001820   -0.0000000
 C    3.5229462    7.2092911    0.0000000  0.00    0.0008375   -0.0000868   -0.0000000
 C    3.6451974    2.3587538    0.0000000  0.00    0.0008242   -0.0004844   -0.0000000
 C    2.8681960    3.5108727    0.0000000  0.00   -0.0006769    0.0001668   -0.0000000
 C    2.9805879    1.1327512    0.0000000  0.00   -0.0001764   -0.0010215   -0.0000000
 C    1.4179143    5.8678028    0.0000000  0.00    0.0002922   -0.0004812   -0.0000000
 C    0.7136607    7.0903473    0.0000000  0.00   -0.0010909   -0.0003246   -0.0000000
 C    2.7653018    8.3768325    0.0000000  0.00   -0.0004859   -0.0002748   -0.0000000
 C    1.4054829    8.3123154    0.0000000  0.00    0.0008716    0.0007658   -0.0000000
 C    1.4291295    3.3567647    0.0000000  0.00    0.0015558   -0.0009902   -0.0000000
 C    0.7144590    4.5912976    0.0000000  0.00   -0.0001899    0.0009543   -0.0000000
 C    1.5840026    0.8367495    0.0000000  0.00    0.0005156   -0.0001797   -0.0000000
 C    0.7454943    2.0060468    0.0000000  0.00   -0.0001547    0.0004770   -0.0000000
 H    8.8716076    7.3715752    0.0000000  0.00   -0.0002310   -0.0013097   -0.0000000
 H    7.5752647    9.4791114    0.0000000  0.00    0.0004815   -0.0002982   -0.0000000
 H    5.1428193    9.4343541    0.0000000  0.00    0.0008932   -0.0021841   -0.0000000
 H    8.9303942    4.9382417    0.0000000  0.00   -0.0002401    0.0006579   -0.0000000
 H    9.0104745    2.5064620    0.0000000  0.00   -0.0006848   -0.0003628   -0.0000000
 H    3.2397323    9.3465781    0.0000000  0.00   -0.0001585    0.0001575   -0.0000000
 H    0.8677514    9.2447437    0.0000000  0.00   -0.0003728   -0.0007415   -0.0000000
 C   -7.1269079   -6.1033938    0.0000000  0.00   -0.0003278    0.0012679   -0.0000000
 C   -5.6907795   -6.0680163    0.0000000  0.00    0.0013577   -0.0001190   -0.0000000
 C   -7.7877611   -7.3525104    0.0000000  0.00   -0.0001608   -0.0000746   -0.0000000
 C   -4.9677669   -7.2779880    0.0000000  0.00   -0.0009578    0.0007338   -0.0000000
 C   -7.0638356   -8.5233613    0.0000000  0.00   -0.0018022    0.0003954   -0.0000000
 C   -5.6718127   -8.4926089    0.0000000  0.00   -0.0003901    0.0006057   -0.0000000
 C   -7.2011865   -3.6672534    0.0000000  0.00    0.0009672   -0.0007892   -0.0000000
 C   -5.7564082   -3.6356377    0.0000000  0.00    0.0022498    0.0006650   -0.0000000
 C   -7.8462303   -4.9053366    0.0000000  0.00    0.0008314   -0.0010763   -0.0000000
 C   -5.0025680   -4.8191037    0.0000000  0.00   -0.0002201    0.0005433   -0.0000000
 C   -7.2779580   -1.2297575    0.0000000  0.00    0.0003096   -0.0004128   -0.0000000
 C   -5.8414676   -1.2221790    0.0000000  0.00    0.0018142    0.0002532   -0.0000000
 C   -7.9265340   -2.4668953    0.0000000  0.00   -0.0007020    0.0005441   -0.0000000
 C   -5.0815120   -2.4032013    0.0000000  0.00   -0.0001809    0.0002344   -0.0000000
 C   -3.5694455   -4.7557277    0.0000000  0.00   -0.0004595    0.0001618   -0.0000000
 C   -2.8409355   -5.9560913    0.0000000  0.00   -0.0005287   -0.0001820   -0.0000000
 C   -3.5229462   -7.2092911    0.0000000  0.00   -0.0008375    0.0000868   -0.0000000
 C   -3.6451974   -2.3587538    0.0000000  0.00   -0.0008242    0.0004844   -0.0000000
 C   -2.8681960   -3.5108727    0.0000000  0.00    0.0006769   -0.0001668   -0.0000000
 C   -2.9805879   -1.1327512    0.0000000  0.00    0.0001764    0.0010215   -0.0000000
 C   -1.4179143   -5.8678028    0.0000000  0.00   -0.0002922    0.0004812   -0.0000000
 C   -0.7136607   -7.0903473    0.0000000  0.00    0.0010909    0.0003246   -0.0000000
 C   -2.7653018   -8.3768325    0.0000000  0.00    0.0004859    0.0002748   -0.0000000
 C   -1.4054829   -8.3123154    0.0000000  0.00   -0.0008716   -0.0007658   -0.0000000
 C   -1.4291295   -3.3567647    0.0000000  0.00   -0.0015558    0.0009902   -0.0000000
 C   -0.7144590   -4.5912976    0.0000000  0.00    0.0001899   -0.0009543   -0.0000000
 C   -1.5840026   -0.8367495    0.0000000  0.00   -0.0005156    0.0001797   -0.0000000
 C   -0.7454943   -2.0060468    0.0000000  0.00    0.0001547   -0.0004770   -0.0000000
 H   -8.8716076   -7.3715752    0.0000000  0.00    0.0002310    0.0013097   -0.0000000
 H   -7.5752647   -9.4791114    0.0000000  0.00   -0.0004815    0.0002982   -0.0000000
 H   -5.1428193   -9.4343541    0.0000000  0.00   -0.0008932    0.0021841   -0.0000000
 H   -8.9303942   -4.9382417    0.0000000  0.00    0.0002401   -0.0006579   -0.0000000
 H   -9.0104745   -2.5064620    0.0000000  0.00    0.0006848    0.0003628   -0.0000000
 H   -3.2397323   -9.3465781    0.0000000  0.00    0.0001585   -0.0001575   -0.0000000
 H   -0.8677514   -9.2447437    0.0000000  0.00    0.0003728    0.0007415   -0.0000000
