148
 Energy =   -4513.2491562810
 C    7.1125055   -6.0985168    0.0000000  0.00   -0.0001439    0.0004233   -0.0000000
 C    5.6799551   -6.0577780    0.0000000  0.00    0.0000119   -0.0004477   -0.0000000
 C    7.7760478   -7.3466894    0.0000000  0.00   -0.0000236   -0.0019533   -0.0000000
 C    4.9558320   -7.2685885    0.0000000  0.00   -0.0010099    0.0007402   -0.0000000
 C    7.0528914   -8.5153627    0.0000000  0.00   -0.0007987    0.0004274   -0.0000000
 C    5.6598796   -8.4807774    0.0000000  0.00    0.0005668   -0.0009678   -0.0000000
 C    7.1916834   -3.6682409    0.0000000  0.00    0.0007922    0.0001962   -0.0000000
 C    5.7531756   -3.6320686    0.0000000  0.00    0.0007589    0.0024064   -0.0000000
 C    7.8352165   -4.9026794    0.0000000  0.00   -0.0004617   -0.0003637   -0.0000000
 C    4.9960063   -4.8115874    0.0000000  0.00   -0.0000159   -0.0008648   -0.0000000
 C    7.2864651   -1.2335337    0.0000000  0.00    0.0008876    0.0007060   -0.0000000
 C    5.8473072   -1.2231638    0.0000000  0.00   -0.0003579    0.0003638   -0.0000000
 C    7.9291127   -2.4648885    0.0000000  0.00   -0.0001178    0.0021706   -0.0000000
 C    5.0813393   -2.3952234    0.0000000  0.00   -0.0006065   -0.0014661   -0.0000000
 C    7.9742001    0.0000000    0.0000000  0.00   -0.0035968   -0.0000000   -0.0000000
 C    5.1681804    0.0000000    0.0000000  0.00    0.0015590   -0.0000000   -0.0000000
 C    3.5598878   -4.7458094    0.0000000  0.00    0.0010051    0.0015057   -0.0000000
 C    2.8335330   -5.9485803    0.0000000  0.00   -0.0014082   -0.0004367   -0.0000000
 C    3.5128716   -7.2026164    0.0000000  0.00    0.0004431   -0.0015417   -0.0000000
 C    3.6428708   -2.3481280    0.0000000  0.00    0.0006371    0.0015858   -0.0000000
 C    2.8621310   -3.5014780    0.0000000  0.00   -0.0019780   -0.0025285   -0.0000000
 C    3.7818242    0.0000000    0.0000000  0.00   -0.0012013   -0.0000000   -0.0000000
 C    2.9814510   -1.1258402    0.0000000  0.00    0.0015375    0.0004717   -0.0000000
 C    1.4133250   -5.8588304    0.0000000  0.00    0.0010966   -0.0015740   -0.0000000
 C    0.7108198   -7.0835531    0.0000000  0.00   -0.0004599    0.0017586   -0.0000000
 C    2.7569294   -8.3745777    0.0000000  0.00    0.0002270    0.0005796   -0.0000000
 C    1.4013060   -8.3100877    0.0000000  0.00    0.0005955   -0.0000866   -0.0000000
 C    1.4224515   -3.3385499    0.0000000  0.00   -0.0006524   -0.0016663   -0.0000000
 C    0.7104837   -4.5838764    0.0000000  0.00   -0.0000903   -0.0007789   -0.0000000
 C    1.5822183   -0.8046021    0.0000000  0.00    0.0007177   -0.0014772   -0.0000000
 C    0.7367437   -1.9992467    0.0000000  0.00   -0.0000214   -0.0016387   -0.0000000
 H    8.8627555   -7.3623983    0.0000000  0.00   -0.0005331   -0.0014033   -0.0000000
 H    7.5606380   -9.4763055    0.0000000  0.00   -0.0005928   -0.0007019   -0.0000000
 H    5.1289284   -9.4285208    0.0000000  0.00    0.0016639    0.0006529   -0.0000000
 H    8.9204271   -4.9406764    0.0000000  0.00    0.0004961    0.0008149   -0.0000000
 H    9.0127987   -2.5135841    0.0000000  0.00   -0.0001366    0.0004107   -0.0000000
 H    9.0586404    0.0000000    0.0000000  0.00   -0.0008857   -0.0000000   -0.0000000
 H    3.2245447   -9.3558798    0.0000000  0.00   -0.0010013   -0.0010835   -0.0000000
 H    0.8685878   -9.2556589    0.0000000  0.00    0.0017827    0.0014097   -0.0000000
 C   -7.1125055    6.0985168    0.0000000  0.00    0.0001439   -0.0004233   -0.0000000
 C   -5.6799551    6.0577780    0.0000000  0.00   -0.0000119    0.0004477   -0.0000000
 C   -7.7760478    7.3466894    0.0000000  0.00    0.0000236    0.0019533   -0.0000000
 C   -4.9558320    7.2685885    0.0000000  0.00    0.0010099   -0.0007402   -0.0000000
 C   -7.0528914    8.5153627    0.0000000  0.00    0.0007987   -0.0004274   -0.0000000
 C   -5.6598796    8.4807774    0.0000000  0.00   -0.0005668    0.0009678   -0.0000000
 C   -7.1916834    3.6682409    0.0000000  0.00   -0.0007922   -0.0001962   -0.0000000
 C   -5.7531756    3.6320686    0.0000000  0.00   -0.0007589   -0.0024064   -0.0000000
 C   -7.8352165    4.9026794    0.0000000  0.00    0.0004617    0.0003637   -0.0000000
 C   -4.9960063    4.8115874    0.0000000  0.00    0.0000159    0.0008648   -0.0000000
 C   -7.2864651    1.2335337    0.0000000  0.00   -0.0008876   -0.0007060   -0.0000000
 C   -5.8473072    1.2231638    0.0000000  0.00    0.0003579   -0.0003638   -0.0000000
 C   -7.9291127    2.4648885    0.0000000  0.00    0.0001178   -0.0021706   -0.0000000
 C   -5.0813393    2.3952234    0.0000000  0.00    0.0006065    0.0014661   -0.0000000
 C   -7.9742001    0.0000000    0.0000000  0.00    0.0035968   -0.0000000   -0.0000000
 C   -5.1681804    0.0000000    0.0000000  0.00   -0.0015590   -0.0000000   -0.0000000
 C   -3.5598878    4.7458094    0.0000000  0.00   -0.0010051   -0.0015057   -0.0000000
 C   -2.8335330    5.9485803    0.0000000  0.00    0.0014082    0.0004367   -0.0000000
 C   -3.5128716    7.2026164    0.0000000  0.00   -0.0004431    0.0015417   -0.0000000
 C   -3.6428708    2.3481280    0.0000000  0.00   -0.0006371   -0.0015858   -0.0000000
 C   -2.8621310    3.5014780    0.0000000  0.00    0.0019780    0.0025285   -0.0000000
 C   -3.7818242    0.0000000    0.0000000  0.00    0.0012013   -0.0000000   -0.0000000
 C   -2.9814510    1.1258402    0.0000000  0.00   -0.0015375   -0.0004717   -0.0000000
 C   -1.4133250    5.8588304    0.0000000  0.00   -0.0010966    0.0015740   -0.0000000
 C   -0.7108198    7.0835531    0.0000000  0.00    0.0004599   -0.0017586   -0.0000000
 C   -2.7569294    8.3745777    0.0000000  0.00   -0.0002270   -0.0005796   -0.0000000
 C   -1.4013060    8.3100877    0.0000000  0.00   -0.0005955    0.0000866   -0.0000000
 C   -1.4224515    3.3385499    0.0000000  0.00    0.0006524    0.0016663   -0.0000000
 C   -0.7104837    4.5838764    0.0000000  0.00    0.0000903    0.0007789   -0.0000000
 C   -1.5822183    0.8046021    0.0000000  0.00   -0.0007177    0.0014772   -0.0000000
 C   -0.7367437    1.9992467    0.0000000  0.00    0.0000214    0.0016387   -0.0000000
 H   -8.8627555    7.3623983    0.0000000  0.00    0.0005331    0.0014033   -0.0000000
 H   -7.5606380    9.4763055    0.0000000  0.00    0.0005928    0.0007019   -0.0000000
 H   -5.1289284    9.4285208    0.0000000  0.00   -0.0016639   -0.0006529   -0.0000000
 H   -8.9204271    4.9406764    0.0000000  0.00   -0.0004961   -0.0008149   -0.0000000
 H   -9.0127987    2.5135841    0.0000000  0.00    0.0001366   -0.0004107   -0.0000000
 H   -9.0586404    0.0000000    0.0000000  0.00    0.0008857   -0.0000000   -0.0000000
 H   -3.2245447    9.3558798    0.0000000  0.00    0.0010013    0.0010835   -0.0000000
 H   -0.8685878    9.2556589    0.0000000  0.00   -0.0017827   -0.0014097   -0.0000000
 C    7.1125055    6.0985168    0.0000000  0.00   -0.0001439   -0.0004233   -0.0000000
 C    5.6799551    6.0577780    0.0000000  0.00    0.0000119    0.0004477   -0.0000000
 C    7.7760478    7.3466894    0.0000000  0.00   -0.0000236    0.0019533   -0.0000000
 C    4.9558320    7.2685885    0.0000000  0.00   -0.0010099   -0.0007402   -0.0000000
 C    7.0528914    8.5153627    0.0000000  0.00   -0.0007987   -0.0004274   -0.0000000
 C    5.6598796    8.4807774    0.0000000  0.00    0.0005668    0.0009678   -0.0000000
 C    7.1916834    3.6682409    0.0000000  0.00    0.0007922   -0.0001962   -0.0000000
 C    5.7531756    3.6320686    0.0000000  0.00    0.0007589   -0.0024064   -0.0000000
 C    7.8352165    4.9026794    0.0000000  0.00   -0.0004617    0.0003637   -0.0000000
 C    4.9960063    4.8115874    0.0000000  0.00   -0.0000159    0.0008648   -0.0000000
 C    7.2864651    1.2335337    0.0000000  0.00    0.0008876   -0.0007060   -0.0000000
 C    5.8473072    1.2231638    0.0000000  0.00   -0.0003579   -0.0003638   -0.0000000
 C    7.9291127    2.4648885    0.0000000  0.00   -0.0001178   -0.0021706   -0.0000000
 C    5.0813393    2.3952234    0.0000000  0.00   -0.0006065    0.0014661   -0.0000000
 C    3.5598878    4.7458094    0.0000000  0.00    0.0010051   -0.0015057   -0.0000000
 C    2.8335330    5.9485803    0.0000000  0.00   -0.0014082    0.0004367   -0.0000000
 C    3.5128716    7.2026164    0.0000000  0.00    0.0004431    0.0015417   -0.0000000
 C    3.6428708    2.3481280    0.0000000  0.00    0.0006371   -0.0015858   -0.0000000
 C    2.8621310    3.5014780    0.0000000  0.00   -0.0019780    0.0025285   -0.0000000
 C    2.9814510    1.1258402    0.0000000  0.00    0.0015375   -0.0004717   -0.0000000
 C    1.4133250    5.8588304    0.0000000  0.00    0.0010966    0.0015740   -0.0000000
 C    0.7108198    7.0835531    0.0000000  0.00   -0.0004599   -0.0017586   -0.0000000
 C    2.7569294    8.3745777    0.0000000  0.00    0.0002270   -0.0005796   -0.0000000
 C    1.4013060    8.3100877    0.0000000  0.00    0.0005955    0.0000866   -0.0000000
 C    1.4224515    3.3385499    0.0000000  0.00   -0.0006524    0.0016663   -0.0000000
 C    0.7104837    4.5838764    0.0000000  0.00   -0.0000903    0.0007789   -0.0000000
 C    1.5822183    0.8046021    0.0000000  0.00    0.0007177    0.0014772   -0.0000000
 C    0.7367437    1.9992467    0.0000000  0.00   -0.0000214    0.0016387   -0.0000000
 H    8.8627555    7.3623983    0.0000000  0.00   -0.0005331    0.0014033   -0.0000000
 H    7.5606380    9.4763055    0.0000000  0.00   -0.0005928    0.0007019   -0.0000000
 H    5.1289284    9.4285208    0.0000000  0.00    0.0016639   -0.0006529   -0.0000000
 H    8.9204271    4.9406764    0.0000000  0.00    0.0004961   -0.0008149   -0.0000000
 H    9.0127987    2.5135841    0.0000000  0.00   -0.0001366   -0.0004107   -0.0000000
 H    3.2245447    9.3558798    0.0000000  0.00   -0.0010013    0.0010835   -0.0000000
 H    0.8685878    9.2556589    0.0000000  0.00    0.0017827   -0.0014097   -0.0000000
 C   -7.1125055   -6.0985168    0.0000000  0.00    0.0001439    0.0004233   -0.0000000
 C   -5.6799551   -6.0577780    0.0000000  0.00   -0.0000119   -0.0004477   -0.0000000
 C   -7.7760478   -7.3466894    0.0000000  0.00    0.0000236   -0.0019533   -0.0000000
 C   -4.9558320   -7.2685885    0.0000000  0.00    0.0010099    0.0007402   -0.0000000
 C   -7.0528914   -8.5153627    0.0000000  0.00    0.0007987    0.0004274   -0.0000000
 C   -5.6598796   -8.4807774    0.0000000  0.00   -0.0005668   -0.0009678   -0.0000000
 C   -7.1916834   -3.6682409    0.0000000  0.00   -0.0007922    0.0001962   -0.0000000
 C   -5.7531756   -3.6320686    0.0000000  0.00   -0.0007589    0.0024064   -0.0000000
 C   -7.8352165   -4.9026794    0.0000000  0.00    0.0004617   -0.0003637   -0.0000000
 C   -4.9960063   -4.8115874    0.0000000  0.00    0.0000159   -0.0008648   -0.0000000
 C   -7.2864651   -1.2335337    0.0000000  0.00   -0.0008876    0.0007060   -0.0000000
 C   -5.8473072   -1.2231638    0.0000000  0.00    0.0003579    0.0003638   -0.0000000
 C   -7.9291127   -2.4648885    0.0000000  0.00    0.0001178    0.0021706   -0.0000000
 C   -5.0813393   -2.3952234    0.0000000  0.00    0.0006065   -0.0014661   -0.0000000
 C   -3.5598878   -4.7458094    0.0000000  0.00   -0.0010051    0.0015057   -0.0000000
 C   -2.8335330   -5.9485803    0.0000000  0.00    0.0014082   -0.0004367   -0.0000000
 C   -3.5128716   -7.2026164    0.0000000  0.00   -0.0004431   -0.0015417   -0.0000000
 C   -3.6428708   -2.3481280    0.0000000  0.00   -0.0006371    0.0015858   -0.0000000
 C   -2.8621310   -3.5014780    0.0000000  0.00    0.0019780   -0.0025285   -0.0000000
 C   -2.9814510   -1.1258402    0.0000000  0.00   -0.0015375    0.0004717   -0.0000000
 C   -1.4133250   -5.8588304    0.0000000  0.00   -0.0010966   -0.0015740   -0.0000000
 C   -0.7108198   -7.0835531    0.0000000  0.00    0.0004599    0.0017586   -0.0000000
 C   -2.7569294   -8.3745777    0.0000000  0.00   -0.0002270    0.0005796   -0.0000000
 C   -1.4013060   -8.3100877    0.0000000  0.00   -0.0005955   -0.0000866   -0.0000000
 C   -1.4224515   -3.3385499    0.0000000  0.00    0.0006524   -0.0016663   -0.0000000
 C   -0.7104837   -4.5838764    0.0000000  0.00    0.0000903   -0.0007789   -0.0000000
 C   -1.5822183   -0.8046021    0.0000000  0.00   -0.0007177   -0.0014772   -0.0000000
 C   -0.7367437   -1.9992467    0.0000000  0.00    0.0000214   -0.0016387   -0.0000000
 H   -8.8627555   -7.3623983    0.0000000  0.00    0.0005331   -0.0014033   -0.0000000
 H   -7.5606380   -9.4763055    0.0000000  0.00    0.0005928   -0.0007019   -0.0000000
 H   -5.1289284   -9.4285208    0.0000000  0.00   -0.0016639    0.0006529   -0.0000000
 H   -8.9204271   -4.9406764    0.0000000  0.00   -0.0004961    0.0008149   -0.0000000
 H   -9.0127987   -2.5135841    0.0000000  0.00    0.0001366    0.0004107   -0.0000000
 H   -3.2245447   -9.3558798    0.0000000  0.00    0.0010013   -0.0010835   -0.0000000
 H   -0.8685878   -9.2556589    0.0000000  0.00   -0.0017827    0.0014097   -0.0000000
