148
 Energy =   -4513.2390543130
 C    7.1115092   -6.1004429    0.0000000  0.00   -0.0004400    0.0003692   -0.0000000
 C    5.6792343   -6.0593879    0.0000000  0.00    0.0008606   -0.0010970   -0.0000000
 C    7.7717113   -7.3485884    0.0000000  0.00    0.0004533   -0.0010671   -0.0000000
 C    4.9541566   -7.2704155    0.0000000  0.00    0.0006200    0.0013462   -0.0000000
 C    7.0472769   -8.5179721    0.0000000  0.00   -0.0002305   -0.0008317   -0.0000000
 C    5.6552616   -8.4839848    0.0000000  0.00    0.0001881   -0.0001850   -0.0000000
 C    7.1944947   -3.6691457    0.0000000  0.00   -0.0010424   -0.0000874   -0.0000000
 C    5.7534053   -3.6322593    0.0000000  0.00    0.0004526   -0.0008108   -0.0000000
 C    7.8354359   -4.9030053    0.0000000  0.00   -0.0007982   -0.0008929   -0.0000000
 C    4.9958723   -4.8125994    0.0000000  0.00   -0.0011833    0.0017368   -0.0000000
 C    7.2870398   -1.2333534    0.0000000  0.00   -0.0005720   -0.0015623   -0.0000000
 C    5.8474017   -1.2227879    0.0000000  0.00   -0.0010186   -0.0006562   -0.0000000
 C    7.9300043   -2.4643279    0.0000000  0.00   -0.0008191   -0.0003549   -0.0000000
 C    5.0811617   -2.3953124    0.0000000  0.00   -0.0009741   -0.0019606   -0.0000000
 C    7.9713700    0.0000000    0.0000000  0.00    0.0010167   -0.0000000   -0.0000000
 C    5.1691394    0.0000000    0.0000000  0.00    0.0026594   -0.0000000   -0.0000000
 C    3.5596691   -4.7458499    0.0000000  0.00    0.0000960   -0.0003203   -0.0000000
 C    2.8327868   -5.9484415    0.0000000  0.00   -0.0002043    0.0001177   -0.0000000
 C    3.5114497   -7.2030180    0.0000000  0.00    0.0021948    0.0010846   -0.0000000
 C    3.6430689   -2.3473316    0.0000000  0.00   -0.0019138   -0.0018496   -0.0000000
 C    2.8616859   -3.5020307    0.0000000  0.00   -0.0015329    0.0001976   -0.0000000
 C    3.7817696    0.0000000    0.0000000  0.00    0.0022884   -0.0000000   -0.0000000
 C    2.9815912   -1.1258945    0.0000000  0.00    0.0006660   -0.0010901   -0.0000000
 C    1.4132542   -5.8586180    0.0000000  0.00    0.0035629    0.0020818   -0.0000000
 C    0.7100596   -7.0837274    0.0000000  0.00   -0.0018175    0.0001970   -0.0000000
 C    2.7548030   -8.3748913    0.0000000  0.00   -0.0007790    0.0000687   -0.0000000
 C    1.3995954   -8.3110395    0.0000000  0.00    0.0016936    0.0019152   -0.0000000
 C    1.4232846   -3.3390406    0.0000000  0.00    0.0003902   -0.0004856   -0.0000000
 C    0.7107054   -4.5847546    0.0000000  0.00   -0.0046201    0.0010550   -0.0000000
 C    1.5818944   -0.8030326    0.0000000  0.00    0.0031398   -0.0030451   -0.0000000
 C    0.7355962   -1.9978779    0.0000000  0.00   -0.0012062   -0.0024792   -0.0000000
 H    8.8576702   -7.3665711    0.0000000  0.00   -0.0009033   -0.0015775   -0.0000000
 H    7.5554086   -9.4780076    0.0000000  0.00   -0.0005418   -0.0005730   -0.0000000
 H    5.1224690   -9.4297593    0.0000000  0.00    0.0026326   -0.0010813   -0.0000000
 H    8.9203054   -4.9412336    0.0000000  0.00   -0.0014370   -0.0003392   -0.0000000
 H    9.0137028   -2.5112363    0.0000000  0.00   -0.0013423   -0.0005535   -0.0000000
 H    9.0559722    0.0000000    0.0000000  0.00   -0.0008625   -0.0000000   -0.0000000
 H    3.2204421   -9.3579184    0.0000000  0.00   -0.0011756    0.0003751   -0.0000000
 H    0.8678313   -9.2591366    0.0000000  0.00    0.0018031   -0.0016639   -0.0000000
 C   -7.1115092    6.1004429    0.0000000  0.00    0.0004400   -0.0003692   -0.0000000
 C   -5.6792343    6.0593879    0.0000000  0.00   -0.0008606    0.0010970   -0.0000000
 C   -7.7717113    7.3485884    0.0000000  0.00   -0.0004533    0.0010671   -0.0000000
 C   -4.9541566    7.2704155    0.0000000  0.00   -0.0006200   -0.0013462   -0.0000000
 C   -7.0472769    8.5179721    0.0000000  0.00    0.0002305    0.0008317   -0.0000000
 C   -5.6552616    8.4839848    0.0000000  0.00   -0.0001881    0.0001850   -0.0000000
 C   -7.1944947    3.6691457    0.0000000  0.00    0.0010424    0.0000874   -0.0000000
 C   -5.7534053    3.6322593    0.0000000  0.00   -0.0004526    0.0008108   -0.0000000
 C   -7.8354359    4.9030053    0.0000000  0.00    0.0007982    0.0008929   -0.0000000
 C   -4.9958723    4.8125994    0.0000000  0.00    0.0011833   -0.0017368   -0.0000000
 C   -7.2870398    1.2333534    0.0000000  0.00    0.0005720    0.0015623   -0.0000000
 C   -5.8474017    1.2227879    0.0000000  0.00    0.0010186    0.0006562   -0.0000000
 C   -7.9300043    2.4643279    0.0000000  0.00    0.0008191    0.0003549   -0.0000000
 C   -5.0811617    2.3953124    0.0000000  0.00    0.0009741    0.0019606   -0.0000000
 C   -7.9713700    0.0000000    0.0000000  0.00   -0.0010167   -0.0000000   -0.0000000
 C   -5.1691394    0.0000000    0.0000000  0.00   -0.0026594   -0.0000000   -0.0000000
 C   -3.5596691    4.7458499    0.0000000  0.00   -0.0000960    0.0003203   -0.0000000
 C   -2.8327868    5.9484415    0.0000000  0.00    0.0002043   -0.0001177   -0.0000000
 C   -3.5114497    7.2030180    0.0000000  0.00   -0.0021948   -0.0010846   -0.0000000
 C   -3.6430689    2.3473316    0.0000000  0.00    0.0019138    0.0018496   -0.0000000
 C   -2.8616859    3.5020307    0.0000000  0.00    0.0015329   -0.0001976   -0.0000000
 C   -3.7817696    0.0000000    0.0000000  0.00   -0.0022884   -0.0000000   -0.0000000
 C   -2.9815912    1.1258945    0.0000000  0.00   -0.0006660    0.0010901   -0.0000000
 C   -1.4132542    5.8586180    0.0000000  0.00   -0.0035629   -0.0020818   -0.0000000
 C   -0.7100596    7.0837274    0.0000000  0.00    0.0018175   -0.0001970   -0.0000000
 C   -2.7548030    8.3748913    0.0000000  0.00    0.0007790   -0.0000687   -0.0000000
 C   -1.3995954    8.3110395    0.0000000  0.00   -0.0016936   -0.0019152   -0.0000000
 C   -1.4232846    3.3390406    0.0000000  0.00   -0.0003902    0.0004856   -0.0000000
 C   -0.7107054    4.5847546    0.0000000  0.00    0.0046201   -0.0010550   -0.0000000
 C   -1.5818944    0.8030326    0.0000000  0.00   -0.0031398    0.0030451   -0.0000000
 C   -0.7355962    1.9978779    0.0000000  0.00    0.0012062    0.0024792   -0.0000000
 H   -8.8576702    7.3665711    0.0000000  0.00    0.0009033    0.0015775   -0.0000000
 H   -7.5554086    9.4780076    0.0000000  0.00    0.0005418    0.0005730   -0.0000000
 H   -5.1224690    9.4297593    0.0000000  0.00   -0.0026326    0.0010813   -0.0000000
 H   -8.9203054    4.9412336    0.0000000  0.00    0.0014370    0.0003392   -0.0000000
 H   -9.0137028    2.5112363    0.0000000  0.00    0.0013423    0.0005535   -0.0000000
 H   -9.0559722    0.0000000    0.0000000  0.00    0.0008625   -0.0000000   -0.0000000
 H   -3.2204421    9.3579184    0.0000000  0.00    0.0011756   -0.0003751   -0.0000000
 H   -0.8678313    9.2591366    0.0000000  0.00   -0.0018031    0.0016639   -0.0000000
 C    7.1115092    6.1004429    0.0000000  0.00   -0.0004400   -0.0003692   -0.0000000
 C    5.6792343    6.0593879    0.0000000  0.00    0.0008606    0.0010970   -0.0000000
 C    7.7717113    7.3485884    0.0000000  0.00    0.0004533    0.0010671   -0.0000000
 C    4.9541566    7.2704155    0.0000000  0.00    0.0006200   -0.0013462   -0.0000000
 C    7.0472769    8.5179721    0.0000000  0.00   -0.0002305    0.0008317   -0.0000000
 C    5.6552616    8.4839848    0.0000000  0.00    0.0001881    0.0001850   -0.0000000
 C    7.1944947    3.6691457    0.0000000  0.00   -0.0010424    0.0000874   -0.0000000
 C    5.7534053    3.6322593    0.0000000  0.00    0.0004526    0.0008108   -0.0000000
 C    7.8354359    4.9030053    0.0000000  0.00   -0.0007982    0.0008929   -0.0000000
 C    4.9958723    4.8125994    0.0000000  0.00   -0.0011833   -0.0017368   -0.0000000
 C    7.2870398    1.2333534    0.0000000  0.00   -0.0005720    0.0015623   -0.0000000
 C    5.8474017    1.2227879    0.0000000  0.00   -0.0010186    0.0006562   -0.0000000
 C    7.9300043    2.4643279    0.0000000  0.00   -0.0008191    0.0003549   -0.0000000
 C    5.0811617    2.3953124    0.0000000  0.00   -0.0009741    0.0019606   -0.0000000
 C    3.5596691    4.7458499    0.0000000  0.00    0.0000960    0.0003203   -0.0000000
 C    2.8327868    5.9484415    0.0000000  0.00   -0.0002043   -0.0001177   -0.0000000
 C    3.5114497    7.2030180    0.0000000  0.00    0.0021948   -0.0010846   -0.0000000
 C    3.6430689    2.3473316    0.0000000  0.00   -0.0019138    0.0018496   -0.0000000
 C    2.8616859    3.5020307    0.0000000  0.00   -0.0015329   -0.0001976   -0.0000000
 C    2.9815912    1.1258945    0.0000000  0.00    0.0006660    0.0010901   -0.0000000
 C    1.4132542    5.8586180    0.0000000  0.00    0.0035629   -0.0020818   -0.0000000
 C    0.7100596    7.0837274    0.0000000  0.00   -0.0018175   -0.0001970   -0.0000000
 C    2.7548030    8.3748913    0.0000000  0.00   -0.0007790   -0.0000687   -0.0000000
 C    1.3995954    8.3110395    0.0000000  0.00    0.0016936   -0.0019152   -0.0000000
 C    1.4232846    3.3390406    0.0000000  0.00    0.0003902    0.0004856   -0.0000000
 C    0.7107054    4.5847546    0.0000000  0.00   -0.0046201   -0.0010550   -0.0000000
 C    1.5818944    0.8030326    0.0000000  0.00    0.0031398    0.0030451   -0.0000000
 C    0.7355962    1.9978779    0.0000000  0.00   -0.0012062    0.0024792   -0.0000000
 H    8.8576702    7.3665711    0.0000000  0.00   -0.0009033    0.0015775   -0.0000000
 H    7.5554086    9.4780076    0.0000000  0.00   -0.0005418    0.0005730   -0.0000000
 H    5.1224690    9.4297593    0.0000000  0.00    0.0026326    0.0010813   -0.0000000
 H    8.9203054    4.9412336    0.0000000  0.00   -0.0014370    0.0003392   -0.0000000
 H    9.0137028    2.5112363    0.0000000  0.00   -0.0013423    0.0005535   -0.0000000
 H    3.2204421    9.3579184    0.0000000  0.00   -0.0011756   -0.0003751   -0.0000000
 H    0.8678313    9.2591366    0.0000000  0.00    0.0018031    0.0016639   -0.0000000
 C   -7.1115092   -6.1004429    0.0000000  0.00    0.0004400    0.0003692   -0.0000000
 C   -5.6792343   -6.0593879    0.0000000  0.00   -0.0008606   -0.0010970   -0.0000000
 C   -7.7717113   -7.3485884    0.0000000  0.00   -0.0004533   -0.0010671   -0.0000000
 C   -4.9541566   -7.2704155    0.0000000  0.00   -0.0006200    0.0013462   -0.0000000
 C   -7.0472769   -8.5179721    0.0000000  0.00    0.0002305   -0.0008317   -0.0000000
 C   -5.6552616   -8.4839848    0.0000000  0.00   -0.0001881   -0.0001850   -0.0000000
 C   -7.1944947   -3.6691457    0.0000000  0.00    0.0010424   -0.0000874   -0.0000000
 C   -5.7534053   -3.6322593    0.0000000  0.00   -0.0004526   -0.0008108   -0.0000000
 C   -7.8354359   -4.9030053    0.0000000  0.00    0.0007982   -0.0008929   -0.0000000
 C   -4.9958723   -4.8125994    0.0000000  0.00    0.0011833    0.0017368   -0.0000000
 C   -7.2870398   -1.2333534    0.0000000  0.00    0.0005720   -0.0015623   -0.0000000
 C   -5.8474017   -1.2227879    0.0000000  0.00    0.0010186   -0.0006562   -0.0000000
 C   -7.9300043   -2.4643279    0.0000000  0.00    0.0008191   -0.0003549   -0.0000000
 C   -5.0811617   -2.3953124    0.0000000  0.00    0.0009741   -0.0019606   -0.0000000
 C   -3.5596691   -4.7458499    0.0000000  0.00   -0.0000960   -0.0003203   -0.0000000
 C   -2.8327868   -5.9484415    0.0000000  0.00    0.0002043    0.0001177   -0.0000000
 C   -3.5114497   -7.2030180    0.0000000  0.00   -0.0021948    0.0010846   -0.0000000
 C   -3.6430689   -2.3473316    0.0000000  0.00    0.0019138   -0.0018496   -0.0000000
 C   -2.8616859   -3.5020307    0.0000000  0.00    0.0015329    0.0001976   -0.0000000
 C   -2.9815912   -1.1258945    0.0000000  0.00   -0.0006660   -0.0010901   -0.0000000
 C   -1.4132542   -5.8586180    0.0000000  0.00   -0.0035629    0.0020818   -0.0000000
 C   -0.7100596   -7.0837274    0.0000000  0.00    0.0018175    0.0001970   -0.0000000
 C   -2.7548030   -8.3748913    0.0000000  0.00    0.0007790    0.0000687   -0.0000000
 C   -1.3995954   -8.3110395    0.0000000  0.00   -0.0016936    0.0019152   -0.0000000
 C   -1.4232846   -3.3390406    0.0000000  0.00   -0.0003902   -0.0004856   -0.0000000
 C   -0.7107054   -4.5847546    0.0000000  0.00    0.0046201    0.0010550   -0.0000000
 C   -1.5818944   -0.8030326    0.0000000  0.00   -0.0031398   -0.0030451   -0.0000000
 C   -0.7355962   -1.9978779    0.0000000  0.00    0.0012062   -0.0024792   -0.0000000
 H   -8.8576702   -7.3665711    0.0000000  0.00    0.0009033   -0.0015775   -0.0000000
 H   -7.5554086   -9.4780076    0.0000000  0.00    0.0005418   -0.0005730   -0.0000000
 H   -5.1224690   -9.4297593    0.0000000  0.00   -0.0026326   -0.0010813   -0.0000000
 H   -8.9203054   -4.9412336    0.0000000  0.00    0.0014370   -0.0003392   -0.0000000
 H   -9.0137028   -2.5112363    0.0000000  0.00    0.0013423   -0.0005535   -0.0000000
 H   -3.2204421   -9.3579184    0.0000000  0.00    0.0011756    0.0003751   -0.0000000
 H   -0.8678313   -9.2591366    0.0000000  0.00   -0.0018031   -0.0016639   -0.0000000
