148
 Energy =   -4513.4105913660
 C    7.1168769   -6.1014138    0.0000000  0.00    0.0009216    0.0008826   -0.0000000
 C    5.6815993   -6.0632695    0.0000000  0.00    0.0003645    0.0005909   -0.0000000
 C    7.7798305   -7.3493683    0.0000000  0.00    0.0016046    0.0014297   -0.0000000
 C    4.9583551   -7.2737617    0.0000000  0.00   -0.0001056    0.0005338   -0.0000000
 C    7.0569069   -8.5218091    0.0000000  0.00   -0.0008719   -0.0004200   -0.0000000
 C    5.6658122   -8.4891103    0.0000000  0.00    0.0014066    0.0011172   -0.0000000
 C    7.1894008   -3.6675457    0.0000000  0.00   -0.0001113    0.0016921   -0.0000000
 C    5.7503243   -3.6318728    0.0000000  0.00    0.0027155   -0.0008857   -0.0000000
 C    7.8369807   -4.9034988    0.0000000  0.00   -0.0010658   -0.0005885   -0.0000000
 C    4.9932556   -4.8162693    0.0000000  0.00   -0.0002632    0.0020145   -0.0000000
 C    7.2760325   -1.2328773    0.0000000  0.00   -0.0003696    0.0009318   -0.0000000
 C    5.8413679   -1.2216900    0.0000000  0.00    0.0014790   -0.0014225   -0.0000000
 C    7.9228312   -2.4650226    0.0000000  0.00    0.0003392   -0.0003187   -0.0000000
 C    5.0766706   -2.3987565    0.0000000  0.00   -0.0015591    0.0012319   -0.0000000
 C    7.9652203    0.0000000    0.0000000  0.00   -0.0013492   -0.0000000   -0.0000000
 C    5.1632702    0.0000000    0.0000000  0.00   -0.0015508   -0.0000000   -0.0000000
 C    3.5623571   -4.7514251    0.0000000  0.00    0.0000488   -0.0006013   -0.0000000
 C    2.8360806   -5.9553320    0.0000000  0.00    0.0012278   -0.0009288   -0.0000000
 C    3.5175872   -7.2062658    0.0000000  0.00    0.0001150    0.0012561   -0.0000000
 C    3.6391607   -2.3521907    0.0000000  0.00    0.0002059   -0.0038429   -0.0000000
 C    2.8609999   -3.5048800    0.0000000  0.00   -0.0002563    0.0006571   -0.0000000
 C    3.7758763    0.0000000    0.0000000  0.00    0.0006889   -0.0000000   -0.0000000
 C    2.9765254   -1.1263264    0.0000000  0.00    0.0014544    0.0024398   -0.0000000
 C    1.4140815   -5.8666619    0.0000000  0.00   -0.0008903    0.0013017   -0.0000000
 C    0.7110156   -7.0885899    0.0000000  0.00    0.0010150    0.0007554   -0.0000000
 C    2.7597968   -8.3804339    0.0000000  0.00    0.0007565   -0.0015794   -0.0000000
 C    1.4048196   -8.3165808    0.0000000  0.00   -0.0007225   -0.0002195   -0.0000000
 C    1.4225304   -3.3435494    0.0000000  0.00   -0.0002775   -0.0004926   -0.0000000
 C    0.7093357   -4.5896537    0.0000000  0.00    0.0011056   -0.0002886   -0.0000000
 C    1.5810172   -0.8069164    0.0000000  0.00   -0.0001571   -0.0005955   -0.0000000
 C    0.7360224   -2.0045915    0.0000000  0.00   -0.0006253    0.0000216   -0.0000000
 H    8.8636238   -7.3667281    0.0000000  0.00    0.0015487    0.0008684   -0.0000000
 H    7.5683925   -9.4774155    0.0000000  0.00   -0.0005593    0.0008086   -0.0000000
 H    5.1359590   -9.4301909    0.0000000  0.00    0.0008138   -0.0009442   -0.0000000
 H    8.9212900   -4.9358509    0.0000000  0.00   -0.0008942   -0.0008687   -0.0000000
 H    9.0066959   -2.5086636    0.0000000  0.00    0.0002270   -0.0009985   -0.0000000
 H    9.0498746    0.0000000    0.0000000  0.00   -0.0003960   -0.0000000   -0.0000000
 H    3.2363012   -9.3490001    0.0000000  0.00   -0.0000590   -0.0018104   -0.0000000
 H    0.8655342   -9.2478190    0.0000000  0.00    0.0003026   -0.0010624   -0.0000000
 C   -7.1168769    6.1014138    0.0000000  0.00   -0.0009216   -0.0008826   -0.0000000
 C   -5.6815993    6.0632695    0.0000000  0.00   -0.0003645   -0.0005909   -0.0000000
 C   -7.7798305    7.3493683    0.0000000  0.00   -0.0016046   -0.0014297   -0.0000000
 C   -4.9583551    7.2737617    0.0000000  0.00    0.0001056   -0.0005338   -0.0000000
 C   -7.0569069    8.5218091    0.0000000  0.00    0.0008719    0.0004200   -0.0000000
 C   -5.6658122    8.4891103    0.0000000  0.00   -0.0014066   -0.0011172   -0.0000000
 C   -7.1894008    3.6675457    0.0000000  0.00    0.0001113   -0.0016921   -0.0000000
 C   -5.7503243    3.6318728    0.0000000  0.00   -0.0027155    0.0008857   -0.0000000
 C   -7.8369807    4.9034988    0.0000000  0.00    0.0010658    0.0005885   -0.0000000
 C   -4.9932556    4.8162693    0.0000000  0.00    0.0002632   -0.0020145   -0.0000000
 C   -7.2760325    1.2328773    0.0000000  0.00    0.0003696   -0.0009318   -0.0000000
 C   -5.8413679    1.2216900    0.0000000  0.00   -0.0014790    0.0014225   -0.0000000
 C   -7.9228312    2.4650226    0.0000000  0.00   -0.0003392    0.0003187   -0.0000000
 C   -5.0766706    2.3987565    0.0000000  0.00    0.0015591   -0.0012319   -0.0000000
 C   -7.9652203    0.0000000    0.0000000  0.00    0.0013492   -0.0000000   -0.0000000
 C   -5.1632702    0.0000000    0.0000000  0.00    0.0015508   -0.0000000   -0.0000000
 C   -3.5623571    4.7514251    0.0000000  0.00   -0.0000488    0.0006013   -0.0000000
 C   -2.8360806    5.9553320    0.0000000  0.00   -0.0012278    0.0009288   -0.0000000
 C   -3.5175872    7.2062658    0.0000000  0.00   -0.0001150   -0.0012561   -0.0000000
 C   -3.6391607    2.3521907    0.0000000  0.00   -0.0002059    0.0038429   -0.0000000
 C   -2.8609999    3.5048800    0.0000000  0.00    0.0002563   -0.0006571   -0.0000000
 C   -3.7758763    0.0000000    0.0000000  0.00   -0.0006889   -0.0000000   -0.0000000
 C   -2.9765254    1.1263264    0.0000000  0.00   -0.0014544   -0.0024398   -0.0000000
 C   -1.4140815    5.8666619    0.0000000  0.00    0.0008903   -0.0013017   -0.0000000
 C   -0.7110156    7.0885899    0.0000000  0.00   -0.0010150   -0.0007554   -0.0000000
 C   -2.7597968    8.3804339    0.0000000  0.00   -0.0007565    0.0015794   -0.0000000
 C   -1.4048196    8.3165808    0.0000000  0.00    0.0007225    0.0002195   -0.0000000
 C   -1.4225304    3.3435494    0.0000000  0.00    0.0002775    0.0004926   -0.0000000
 C   -0.7093357    4.5896537    0.0000000  0.00   -0.0011056    0.0002886   -0.0000000
 C   -1.5810172    0.8069164    0.0000000  0.00    0.0001571    0.0005955   -0.0000000
 C   -0.7360224    2.0045915    0.0000000  0.00    0.0006253   -0.0000216   -0.0000000
 H   -8.8636238    7.3667281    0.0000000  0.00   -0.0015487   -0.0008684   -0.0000000
 H   -7.5683925    9.4774155    0.0000000  0.00    0.0005593   -0.0008086   -0.0000000
 H   -5.1359590    9.4301909    0.0000000  0.00   -0.0008138    0.0009442   -0.0000000
 H   -8.9212900    4.9358509    0.0000000  0.00    0.0008942    0.0008687   -0.0000000
 H   -9.0066959    2.5086636    0.0000000  0.00   -0.0002270    0.0009985   -0.0000000
 H   -9.0498746    0.0000000    0.0000000  0.00    0.0003960   -0.0000000   -0.0000000
 H   -3.2363012    9.3490001    0.0000000  0.00    0.0000590    0.0018104   -0.0000000
 H   -0.8655342    9.2478190    0.0000000  0.00   -0.0003026    0.0010624   -0.0000000
 C    7.1168769    6.1014138    0.0000000  0.00    0.0009216   -0.0008826   -0.0000000
 C    5.6815993    6.0632695    0.0000000  0.00    0.0003645   -0.0005909   -0.0000000
 C    7.7798305    7.3493683    0.0000000  0.00    0.0016046   -0.0014297   -0.0000000
 C    4.9583551    7.2737617    0.0000000  0.00   -0.0001056   -0.0005338   -0.0000000
 C    7.0569069    8.5218091    0.0000000  0.00   -0.0008719    0.0004200   -0.0000000
 C    5.6658122    8.4891103    0.0000000  0.00    0.0014066   -0.0011172   -0.0000000
 C    7.1894008    3.6675457    0.0000000  0.00   -0.0001113   -0.0016921   -0.0000000
 C    5.7503243    3.6318728    0.0000000  0.00    0.0027155    0.0008857   -0.0000000
 C    7.8369807    4.9034988    0.0000000  0.00   -0.0010658    0.0005885   -0.0000000
 C    4.9932556    4.8162693    0.0000000  0.00   -0.0002632   -0.0020145   -0.0000000
 C    7.2760325    1.2328773    0.0000000  0.00   -0.0003696   -0.0009318   -0.0000000
 C    5.8413679    1.2216900    0.0000000  0.00    0.0014790    0.0014225   -0.0000000
 C    7.9228312    2.4650226    0.0000000  0.00    0.0003392    0.0003187   -0.0000000
 C    5.0766706    2.3987565    0.0000000  0.00   -0.0015591   -0.0012319   -0.0000000
 C    3.5623571    4.7514251    0.0000000  0.00    0.0000488    0.0006013   -0.0000000
 C    2.8360806    5.9553320    0.0000000  0.00    0.0012278    0.0009288   -0.0000000
 C    3.5175872    7.2062658    0.0000000  0.00    0.0001150   -0.0012561   -0.0000000
 C    3.6391607    2.3521907    0.0000000  0.00    0.0002059    0.0038429   -0.0000000
 C    2.8609999    3.5048800    0.0000000  0.00   -0.0002563   -0.0006571   -0.0000000
 C    2.9765254    1.1263264    0.0000000  0.00    0.0014544   -0.0024398   -0.0000000
 C    1.4140815    5.8666619    0.0000000  0.00   -0.0008903   -0.0013017   -0.0000000
 C    0.7110156    7.0885899    0.0000000  0.00    0.0010150   -0.0007554   -0.0000000
 C    2.7597968    8.3804339    0.0000000  0.00    0.0007565    0.0015794   -0.0000000
 C    1.4048196    8.3165808    0.0000000  0.00   -0.0007225    0.0002195   -0.0000000
 C    1.4225304    3.3435494    0.0000000  0.00   -0.0002775    0.0004926   -0.0000000
 C    0.7093357    4.5896537    0.0000000  0.00    0.0011056    0.0002886   -0.0000000
 C    1.5810172    0.8069164    0.0000000  0.00   -0.0001571    0.0005955   -0.0000000
 C    0.7360224    2.0045915    0.0000000  0.00   -0.0006253   -0.0000216   -0.0000000
 H    8.8636238    7.3667281    0.0000000  0.00    0.0015487   -0.0008684   -0.0000000
 H    7.5683925    9.4774155    0.0000000  0.00   -0.0005593   -0.0008086   -0.0000000
 H    5.1359590    9.4301909    0.0000000  0.00    0.0008138    0.0009442   -0.0000000
 H    8.9212900    4.9358509    0.0000000  0.00   -0.0008942    0.0008687   -0.0000000
 H    9.0066959    2.5086636    0.0000000  0.00    0.0002270    0.0009985   -0.0000000
 H    3.2363012    9.3490001    0.0000000  0.00   -0.0000590    0.0018104   -0.0000000
 H    0.8655342    9.2478190    0.0000000  0.00    0.0003026    0.0010624   -0.0000000
 C   -7.1168769   -6.1014138    0.0000000  0.00   -0.0009216    0.0008826   -0.0000000
 C   -5.6815993   -6.0632695    0.0000000  0.00   -0.0003645    0.0005909   -0.0000000
 C   -7.7798305   -7.3493683    0.0000000  0.00   -0.0016046    0.0014297   -0.0000000
 C   -4.9583551   -7.2737617    0.0000000  0.00    0.0001056    0.0005338   -0.0000000
 C   -7.0569069   -8.5218091    0.0000000  0.00    0.0008719   -0.0004200   -0.0000000
 C   -5.6658122   -8.4891103    0.0000000  0.00   -0.0014066    0.0011172   -0.0000000
 C   -7.1894008   -3.6675457    0.0000000  0.00    0.0001113    0.0016921   -0.0000000
 C   -5.7503243   -3.6318728    0.0000000  0.00   -0.0027155   -0.0008857   -0.0000000
 C   -7.8369807   -4.9034988    0.0000000  0.00    0.0010658   -0.0005885   -0.0000000
 C   -4.9932556   -4.8162693    0.0000000  0.00    0.0002632    0.0020145   -0.0000000
 C   -7.2760325   -1.2328773    0.0000000  0.00    0.0003696    0.0009318   -0.0000000
 C   -5.8413679   -1.2216900    0.0000000  0.00   -0.0014790   -0.0014225   -0.0000000
 C   -7.9228312   -2.4650226    0.0000000  0.00   -0.0003392   -0.0003187   -0.0000000
 C   -5.0766706   -2.3987565    0.0000000  0.00    0.0015591    0.0012319   -0.0000000
 C   -3.5623571   -4.7514251    0.0000000  0.00   -0.0000488   -0.0006013   -0.0000000
 C   -2.8360806   -5.9553320    0.0000000  0.00   -0.0012278   -0.0009288   -0.0000000
 C   -3.5175872   -7.2062658    0.0000000  0.00   -0.0001150    0.0012561   -0.0000000
 C   -3.6391607   -2.3521907    0.0000000  0.00   -0.0002059   -0.0038429   -0.0000000
 C   -2.8609999   -3.5048800    0.0000000  0.00    0.0002563    0.0006571   -0.0000000
 C   -2.9765254   -1.1263264    0.0000000  0.00   -0.0014544    0.0024398   -0.0000000
 C   -1.4140815   -5.8666619    0.0000000  0.00    0.0008903    0.0013017   -0.0000000
 C   -0.7110156   -7.0885899    0.0000000  0.00   -0.0010150    0.0007554   -0.0000000
 C   -2.7597968   -8.3804339    0.0000000  0.00   -0.0007565   -0.0015794   -0.0000000
 C   -1.4048196   -8.3165808    0.0000000  0.00    0.0007225   -0.0002195   -0.0000000
 C   -1.4225304   -3.3435494    0.0000000  0.00    0.0002775   -0.0004926   -0.0000000
 C   -0.7093357   -4.5896537    0.0000000  0.00   -0.0011056   -0.0002886   -0.0000000
 C   -1.5810172   -0.8069164    0.0000000  0.00    0.0001571   -0.0005955   -0.0000000
 C   -0.7360224   -2.0045915    0.0000000  0.00    0.0006253    0.0000216   -0.0000000
 H   -8.8636238   -7.3667281    0.0000000  0.00   -0.0015487    0.0008684   -0.0000000
 H   -7.5683925   -9.4774155    0.0000000  0.00    0.0005593    0.0008086   -0.0000000
 H   -5.1359590   -9.4301909    0.0000000  0.00   -0.0008138   -0.0009442   -0.0000000
 H   -8.9212900   -4.9358509    0.0000000  0.00    0.0008942   -0.0008687   -0.0000000
 H   -9.0066959   -2.5086636    0.0000000  0.00   -0.0002270   -0.0009985   -0.0000000
 H   -3.2363012   -9.3490001    0.0000000  0.00    0.0000590   -0.0018104   -0.0000000
 H   -0.8655342   -9.2478190    0.0000000  0.00   -0.0003026   -0.0010624   -0.0000000
