148
 Energy =   -4513.4098211420
 C    7.1114356   -6.0983674    0.0000000  0.00    0.0007481   -0.0021535   -0.0000000
 C    5.6771411   -6.0577707    0.0000000  0.00    0.0000824    0.0013073   -0.0000000
 C    7.7744482   -7.3468234    0.0000000  0.00    0.0010341    0.0018619   -0.0000000
 C    4.9533591   -7.2684676    0.0000000  0.00   -0.0007723   -0.0021866   -0.0000000
 C    7.0512140   -8.5173160    0.0000000  0.00    0.0017713   -0.0033717   -0.0000000
 C    5.6587570   -8.4824697    0.0000000  0.00    0.0000234    0.0002662   -0.0000000
 C    7.1883460   -3.6672580    0.0000000  0.00   -0.0002023    0.0011088   -0.0000000
 C    5.7499631   -3.6296950    0.0000000  0.00    0.0013948   -0.0001288   -0.0000000
 C    7.8331926   -4.9021546    0.0000000  0.00   -0.0004720    0.0010275   -0.0000000
 C    4.9908352   -4.8107677    0.0000000  0.00    0.0002890   -0.0027183   -0.0000000
 C    7.2833535   -1.2329637    0.0000000  0.00   -0.0013059    0.0001159   -0.0000000
 C    5.8475835   -1.2216514    0.0000000  0.00   -0.0003142   -0.0012283   -0.0000000
 C    7.9262169   -2.4655664    0.0000000  0.00   -0.0012864    0.0016280   -0.0000000
 C    5.0780388   -2.3947826    0.0000000  0.00    0.0007623   -0.0012053   -0.0000000
 C    7.9725283    0.0000000    0.0000000  0.00   -0.0001300   -0.0000000   -0.0000000
 C    5.1674541    0.0000000    0.0000000  0.00    0.0001836   -0.0000000   -0.0000000
 C    3.5569977   -4.7424536    0.0000000  0.00    0.0011928    0.0004371   -0.0000000
 C    2.8322267   -5.9525023    0.0000000  0.00   -0.0010197   -0.0018756   -0.0000000
 C    3.5127778   -7.1999585    0.0000000  0.00   -0.0011490    0.0004993   -0.0000000
 C    3.6384254   -2.3445611    0.0000000  0.00   -0.0006085    0.0011509   -0.0000000
 C    2.8577804   -3.4998795    0.0000000  0.00    0.0001237   -0.0017363   -0.0000000
 C    3.7846098    0.0000000    0.0000000  0.00    0.0023315   -0.0000000   -0.0000000
 C    2.9792378   -1.1199415    0.0000000  0.00   -0.0002969   -0.0007064   -0.0000000
 C    1.4115030   -5.8645659    0.0000000  0.00   -0.0012771    0.0007028   -0.0000000
 C    0.7092722   -7.0860018    0.0000000  0.00    0.0009937    0.0011985   -0.0000000
 C    2.7567755   -8.3793821    0.0000000  0.00   -0.0009213   -0.0004995   -0.0000000
 C    1.4045461   -8.3174592    0.0000000  0.00   -0.0014387   -0.0002923   -0.0000000
 C    1.4168243   -3.3328391    0.0000000  0.00    0.0008478   -0.0001836   -0.0000000
 C    0.7052474   -4.5868798    0.0000000  0.00    0.0022306   -0.0009650   -0.0000000
 C    1.5807335   -0.7785681    0.0000000  0.00   -0.0011433    0.0017755   -0.0000000
 C    0.7282177   -2.0059816    0.0000000  0.00   -0.0015417    0.0007101   -0.0000000
 H    8.8582952   -7.3634693    0.0000000  0.00    0.0007074   -0.0015147   -0.0000000
 H    7.5605822   -9.4737730    0.0000000  0.00    0.0021062   -0.0019544   -0.0000000
 H    5.1284218   -9.4232465    0.0000000  0.00    0.0021395    0.0001093   -0.0000000
 H    8.9175464   -4.9363036    0.0000000  0.00   -0.0012653   -0.0011791   -0.0000000
 H    9.0100255   -2.5134168    0.0000000  0.00   -0.0021592    0.0000218   -0.0000000
 H    9.0572263    0.0000000    0.0000000  0.00   -0.0029974   -0.0000000   -0.0000000
 H    3.2356164   -9.3466912    0.0000000  0.00    0.0002534    0.0004009   -0.0000000
 H    0.8651466   -9.2487205    0.0000000  0.00    0.0009019    0.0017430   -0.0000000
 C   -7.1114356    6.0983674    0.0000000  0.00   -0.0007481    0.0021535   -0.0000000
 C   -5.6771411    6.0577707    0.0000000  0.00   -0.0000824   -0.0013073   -0.0000000
 C   -7.7744482    7.3468234    0.0000000  0.00   -0.0010341   -0.0018619   -0.0000000
 C   -4.9533591    7.2684676    0.0000000  0.00    0.0007723    0.0021866   -0.0000000
 C   -7.0512140    8.5173160    0.0000000  0.00   -0.0017713    0.0033717   -0.0000000
 C   -5.6587570    8.4824697    0.0000000  0.00   -0.0000234   -0.0002662   -0.0000000
 C   -7.1883460    3.6672580    0.0000000  0.00    0.0002023   -0.0011088   -0.0000000
 C   -5.7499631    3.6296950    0.0000000  0.00   -0.0013948    0.0001288   -0.0000000
 C   -7.8331926    4.9021546    0.0000000  0.00    0.0004720   -0.0010275   -0.0000000
 C   -4.9908352    4.8107677    0.0000000  0.00   -0.0002890    0.0027183   -0.0000000
 C   -7.2833535    1.2329637    0.0000000  0.00    0.0013059   -0.0001159   -0.0000000
 C   -5.8475835    1.2216514    0.0000000  0.00    0.0003142    0.0012283   -0.0000000
 C   -7.9262169    2.4655664    0.0000000  0.00    0.0012864   -0.0016280   -0.0000000
 C   -5.0780388    2.3947826    0.0000000  0.00   -0.0007623    0.0012053   -0.0000000
 C   -7.9725283    0.0000000    0.0000000  0.00    0.0001300   -0.0000000   -0.0000000
 C   -5.1674541    0.0000000    0.0000000  0.00   -0.0001836   -0.0000000   -0.0000000
 C   -3.5569977    4.7424536    0.0000000  0.00   -0.0011928   -0.0004371   -0.0000000
 C   -2.8322267    5.9525023    0.0000000  0.00    0.0010197    0.0018756   -0.0000000
 C   -3.5127778    7.1999585    0.0000000  0.00    0.0011490   -0.0004993   -0.0000000
 C   -3.6384254    2.3445611    0.0000000  0.00    0.0006085   -0.0011509   -0.0000000
 C   -2.8577804    3.4998795    0.0000000  0.00   -0.0001237    0.0017363   -0.0000000
 C   -3.7846098    0.0000000    0.0000000  0.00   -0.0023315   -0.0000000   -0.0000000
 C   -2.9792378    1.1199415    0.0000000  0.00    0.0002969    0.0007064   -0.0000000
 C   -1.4115030    5.8645659    0.0000000  0.00    0.0012771   -0.0007028   -0.0000000
 C   -0.7092722    7.0860018    0.0000000  0.00   -0.0009937   -0.0011985   -0.0000000
 C   -2.7567755    8.3793821    0.0000000  0.00    0.0009213    0.0004995   -0.0000000
 C   -1.4045461    8.3174592    0.0000000  0.00    0.0014387    0.0002923   -0.0000000
 C   -1.4168243    3.3328391    0.0000000  0.00   -0.0008478    0.0001836   -0.0000000
 C   -0.7052474    4.5868798    0.0000000  0.00   -0.0022306    0.0009650   -0.0000000
 C   -1.5807335    0.7785681    0.0000000  0.00    0.0011433   -0.0017755   -0.0000000
 C   -0.7282177    2.0059816    0.0000000  0.00    0.0015417   -0.0007101   -0.0000000
 H   -8.8582952    7.3634693    0.0000000  0.00   -0.0007074    0.0015147   -0.0000000
 H   -7.5605822    9.4737730    0.0000000  0.00   -0.0021062    0.0019544   -0.0000000
 H   -5.1284218    9.4232465    0.0000000  0.00   -0.0021395   -0.0001093   -0.0000000
 H   -8.9175464    4.9363036    0.0000000  0.00    0.0012653    0.0011791   -0.0000000
 H   -9.0100255    2.5134168    0.0000000  0.00    0.0021592   -0.0000218   -0.0000000
 H   -9.0572263    0.0000000    0.0000000  0.00    0.0029974   -0.0000000   -0.0000000
 H   -3.2356164    9.3466912    0.0000000  0.00   -0.0002534   -0.0004009   -0.0000000
 H   -0.8651466    9.2487205    0.0000000  0.00   -0.0009019   -0.0017430   -0.0000000
 C    7.1114356    6.0983674    0.0000000  0.00    0.0007481    0.0021535   -0.0000000
 C    5.6771411    6.0577707    0.0000000  0.00    0.0000824   -0.0013073   -0.0000000
 C    7.7744482    7.3468234    0.0000000  0.00    0.0010341   -0.0018619   -0.0000000
 C    4.9533591    7.2684676    0.0000000  0.00   -0.0007723    0.0021866   -0.0000000
 C    7.0512140    8.5173160    0.0000000  0.00    0.0017713    0.0033717   -0.0000000
 C    5.6587570    8.4824697    0.0000000  0.00    0.0000234   -0.0002662   -0.0000000
 C    7.1883460    3.6672580    0.0000000  0.00   -0.0002023   -0.0011088   -0.0000000
 C    5.7499631    3.6296950    0.0000000  0.00    0.0013948    0.0001288   -0.0000000
 C    7.8331926    4.9021546    0.0000000  0.00   -0.0004720   -0.0010275   -0.0000000
 C    4.9908352    4.8107677    0.0000000  0.00    0.0002890    0.0027183   -0.0000000
 C    7.2833535    1.2329637    0.0000000  0.00   -0.0013059   -0.0001159   -0.0000000
 C    5.8475835    1.2216514    0.0000000  0.00   -0.0003142    0.0012283   -0.0000000
 C    7.9262169    2.4655664    0.0000000  0.00   -0.0012864   -0.0016280   -0.0000000
 C    5.0780388    2.3947826    0.0000000  0.00    0.0007623    0.0012053   -0.0000000
 C    3.5569977    4.7424536    0.0000000  0.00    0.0011928   -0.0004371   -0.0000000
 C    2.8322267    5.9525023    0.0000000  0.00   -0.0010197    0.0018756   -0.0000000
 C    3.5127778    7.1999585    0.0000000  0.00   -0.0011490   -0.0004993   -0.0000000
 C    3.6384254    2.3445611    0.0000000  0.00   -0.0006085   -0.0011509   -0.0000000
 C    2.8577804    3.4998795    0.0000000  0.00    0.0001237    0.0017363   -0.0000000
 C    2.9792378    1.1199415    0.0000000  0.00   -0.0002969    0.0007064   -0.0000000
 C    1.4115030    5.8645659    0.0000000  0.00   -0.0012771   -0.0007028   -0.0000000
 C    0.7092722    7.0860018    0.0000000  0.00    0.0009937   -0.0011985   -0.0000000
 C    2.7567755    8.3793821    0.0000000  0.00   -0.0009213    0.0004995   -0.0000000
 C    1.4045461    8.3174592    0.0000000  0.00   -0.0014387    0.0002923   -0.0000000
 C    1.4168243    3.3328391    0.0000000  0.00    0.0008478    0.0001836   -0.0000000
 C    0.7052474    4.5868798    0.0000000  0.00    0.0022306    0.0009650   -0.0000000
 C    1.5807335    0.7785681    0.0000000  0.00   -0.0011433   -0.0017755   -0.0000000
 C    0.7282177    2.0059816    0.0000000  0.00   -0.0015417   -0.0007101   -0.0000000
 H    8.8582952    7.3634693    0.0000000  0.00    0.0007074    0.0015147   -0.0000000
 H    7.5605822    9.4737730    0.0000000  0.00    0.0021062    0.0019544   -0.0000000
 H    5.1284218    9.4232465    0.0000000  0.00    0.0021395   -0.0001093   -0.0000000
 H    8.9175464    4.9363036    0.0000000  0.00   -0.0012653    0.0011791   -0.0000000
 H    9.0100255    2.5134168    0.0000000  0.00   -0.0021592   -0.0000218   -0.0000000
 H    3.2356164    9.3466912    0.0000000  0.00    0.0002534   -0.0004009   -0.0000000
 H    0.8651466    9.2487205    0.0000000  0.00    0.0009019   -0.0017430   -0.0000000
 C   -7.1114356   -6.0983674    0.0000000  0.00   -0.0007481   -0.0021535   -0.0000000
 C   -5.6771411   -6.0577707    0.0000000  0.00   -0.0000824    0.0013073   -0.0000000
 C   -7.7744482   -7.3468234    0.0000000  0.00   -0.0010341    0.0018619   -0.0000000
 C   -4.9533591   -7.2684676    0.0000000  0.00    0.0007723   -0.0021866   -0.0000000
 C   -7.0512140   -8.5173160    0.0000000  0.00   -0.0017713   -0.0033717   -0.0000000
 C   -5.6587570   -8.4824697    0.0000000  0.00   -0.0000234    0.0002662   -0.0000000
 C   -7.1883460   -3.6672580    0.0000000  0.00    0.0002023    0.0011088   -0.0000000
 C   -5.7499631   -3.6296950    0.0000000  0.00   -0.0013948   -0.0001288   -0.0000000
 C   -7.8331926   -4.9021546    0.0000000  0.00    0.0004720    0.0010275   -0.0000000
 C   -4.9908352   -4.8107677    0.0000000  0.00   -0.0002890   -0.0027183   -0.0000000
 C   -7.2833535   -1.2329637    0.0000000  0.00    0.0013059    0.0001159   -0.0000000
 C   -5.8475835   -1.2216514    0.0000000  0.00    0.0003142   -0.0012283   -0.0000000
 C   -7.9262169   -2.4655664    0.0000000  0.00    0.0012864    0.0016280   -0.0000000
 C   -5.0780388   -2.3947826    0.0000000  0.00   -0.0007623   -0.0012053   -0.0000000
 C   -3.5569977   -4.7424536    0.0000000  0.00   -0.0011928    0.0004371   -0.0000000
 C   -2.8322267   -5.9525023    0.0000000  0.00    0.0010197   -0.0018756   -0.0000000
 C   -3.5127778   -7.1999585    0.0000000  0.00    0.0011490    0.0004993   -0.0000000
 C   -3.6384254   -2.3445611    0.0000000  0.00    0.0006085    0.0011509   -0.0000000
 C   -2.8577804   -3.4998795    0.0000000  0.00   -0.0001237   -0.0017363   -0.0000000
 C   -2.9792378   -1.1199415    0.0000000  0.00    0.0002969   -0.0007064   -0.0000000
 C   -1.4115030   -5.8645659    0.0000000  0.00    0.0012771    0.0007028   -0.0000000
 C   -0.7092722   -7.0860018    0.0000000  0.00   -0.0009937    0.0011985   -0.0000000
 C   -2.7567755   -8.3793821    0.0000000  0.00    0.0009213   -0.0004995   -0.0000000
 C   -1.4045461   -8.3174592    0.0000000  0.00    0.0014387   -0.0002923   -0.0000000
 C   -1.4168243   -3.3328391    0.0000000  0.00   -0.0008478   -0.0001836   -0.0000000
 C   -0.7052474   -4.5868798    0.0000000  0.00   -0.0022306   -0.0009650   -0.0000000
 C   -1.5807335   -0.7785681    0.0000000  0.00    0.0011433    0.0017755   -0.0000000
 C   -0.7282177   -2.0059816    0.0000000  0.00    0.0015417    0.0007101   -0.0000000
 H   -8.8582952   -7.3634693    0.0000000  0.00   -0.0007074   -0.0015147   -0.0000000
 H   -7.5605822   -9.4737730    0.0000000  0.00   -0.0021062   -0.0019544   -0.0000000
 H   -5.1284218   -9.4232465    0.0000000  0.00   -0.0021395    0.0001093   -0.0000000
 H   -8.9175464   -4.9363036    0.0000000  0.00    0.0012653   -0.0011791   -0.0000000
 H   -9.0100255   -2.5134168    0.0000000  0.00    0.0021592    0.0000218   -0.0000000
 H   -3.2356164   -9.3466912    0.0000000  0.00   -0.0002534    0.0004009   -0.0000000
 H   -0.8651466   -9.2487205    0.0000000  0.00   -0.0009019    0.0017430   -0.0000000
