148
 Energy =   -4513.4034278990
 C    7.1148484   -6.1046629    0.0000000  0.00   -0.0013436    0.0013019   -0.0000000
 C    5.6807085   -6.0661373    0.0000000  0.00    0.0009126    0.0005250   -0.0000000
 C    7.7747381   -7.3516938    0.0000000  0.00    0.0001750   -0.0006605   -0.0000000
 C    4.9570411   -7.2766584    0.0000000  0.00   -0.0002369    0.0003080   -0.0000000
 C    7.0510799   -8.5252264    0.0000000  0.00   -0.0002850    0.0015595   -0.0000000
 C    5.6613254   -8.4934675    0.0000000  0.00    0.0004598   -0.0019942   -0.0000000
 C    7.1927617   -3.6698947    0.0000000  0.00   -0.0004558    0.0007690   -0.0000000
 C    5.7505782   -3.6336768    0.0000000  0.00    0.0008473    0.0013104   -0.0000000
 C    7.8364391   -4.9046820    0.0000000  0.00   -0.0006667    0.0005746   -0.0000000
 C    4.9930671   -4.8179750    0.0000000  0.00   -0.0001664   -0.0020379   -0.0000000
 C    7.2776566   -1.2325572    0.0000000  0.00   -0.0003202   -0.0001218   -0.0000000
 C    5.8416714   -1.2224910    0.0000000  0.00    0.0012697   -0.0008613   -0.0000000
 C    7.9241500   -2.4655412    0.0000000  0.00   -0.0004089    0.0003546   -0.0000000
 C    5.0769513   -2.3995412    0.0000000  0.00   -0.0001525    0.0005594   -0.0000000
 C    7.9610735    0.0000000    0.0000000  0.00    0.0011798   -0.0000000   -0.0000000
 C    5.1642068    0.0000000    0.0000000  0.00   -0.0005786   -0.0000000   -0.0000000
 C    3.5617807   -4.7521931    0.0000000  0.00   -0.0009590    0.0021708   -0.0000000
 C    2.8352602   -5.9559202    0.0000000  0.00    0.0023128   -0.0022858   -0.0000000
 C    3.5164473   -7.2067234    0.0000000  0.00   -0.0005681   -0.0002457   -0.0000000
 C    3.6395894   -2.3519130    0.0000000  0.00   -0.0005508   -0.0004024   -0.0000000
 C    2.8600561   -3.5060456    0.0000000  0.00    0.0015964    0.0002332   -0.0000000
 C    3.7763177    0.0000000    0.0000000  0.00    0.0004635   -0.0000000   -0.0000000
 C    2.9770348   -1.1274952    0.0000000  0.00    0.0009170   -0.0000861   -0.0000000
 C    1.4136904   -5.8677665    0.0000000  0.00   -0.0002729    0.0004924   -0.0000000
 C    0.7099672   -7.0898725    0.0000000  0.00    0.0003597   -0.0009212   -0.0000000
 C    2.7583058   -8.3816875    0.0000000  0.00    0.0000669    0.0000298   -0.0000000
 C    1.4040093   -8.3188690    0.0000000  0.00    0.0012197    0.0002435   -0.0000000
 C    1.4235532   -3.3444505    0.0000000  0.00   -0.0004067   -0.0004398   -0.0000000
 C    0.7086651   -4.5926896    0.0000000  0.00   -0.0011643    0.0010427   -0.0000000
 C    1.5814795   -0.8082062    0.0000000  0.00    0.0002272   -0.0006055   -0.0000000
 C    0.7354184   -2.0053064    0.0000000  0.00    0.0002972    0.0004134   -0.0000000
 H    8.8586331   -7.3707657    0.0000000  0.00   -0.0000570    0.0012737   -0.0000000
 H    7.5633908   -9.4804189    0.0000000  0.00   -0.0000053    0.0002465   -0.0000000
 H    5.1311792   -9.4342306    0.0000000  0.00    0.0007578   -0.0010711   -0.0000000
 H    8.9205950   -4.9393901    0.0000000  0.00   -0.0004513    0.0004954   -0.0000000
 H    9.0079145   -2.5086818    0.0000000  0.00    0.0007064   -0.0002141   -0.0000000
 H    9.0459493    0.0000000    0.0000000  0.00   -0.0005250   -0.0000000   -0.0000000
 H    3.2357331   -9.3496017    0.0000000  0.00    0.0004310   -0.0011118   -0.0000000
 H    0.8650412   -9.2501512    0.0000000  0.00   -0.0000638   -0.0008783   -0.0000000
 C   -7.1148484    6.1046629    0.0000000  0.00    0.0013436   -0.0013019   -0.0000000
 C   -5.6807085    6.0661373    0.0000000  0.00   -0.0009126   -0.0005250   -0.0000000
 C   -7.7747381    7.3516938    0.0000000  0.00   -0.0001750    0.0006605   -0.0000000
 C   -4.9570411    7.2766584    0.0000000  0.00    0.0002369   -0.0003080   -0.0000000
 C   -7.0510799    8.5252264    0.0000000  0.00    0.0002850   -0.0015595   -0.0000000
 C   -5.6613254    8.4934675    0.0000000  0.00   -0.0004598    0.0019942   -0.0000000
 C   -7.1927617    3.6698947    0.0000000  0.00    0.0004558   -0.0007690   -0.0000000
 C   -5.7505782    3.6336768    0.0000000  0.00   -0.0008473   -0.0013104   -0.0000000
 C   -7.8364391    4.9046820    0.0000000  0.00    0.0006667   -0.0005746   -0.0000000
 C   -4.9930671    4.8179750    0.0000000  0.00    0.0001664    0.0020379   -0.0000000
 C   -7.2776566    1.2325572    0.0000000  0.00    0.0003202    0.0001218   -0.0000000
 C   -5.8416714    1.2224910    0.0000000  0.00   -0.0012697    0.0008613   -0.0000000
 C   -7.9241500    2.4655412    0.0000000  0.00    0.0004089   -0.0003546   -0.0000000
 C   -5.0769513    2.3995412    0.0000000  0.00    0.0001525   -0.0005594   -0.0000000
 C   -7.9610735    0.0000000    0.0000000  0.00   -0.0011798   -0.0000000   -0.0000000
 C   -5.1642068    0.0000000    0.0000000  0.00    0.0005786   -0.0000000   -0.0000000
 C   -3.5617807    4.7521931    0.0000000  0.00    0.0009590   -0.0021708   -0.0000000
 C   -2.8352602    5.9559202    0.0000000  0.00   -0.0023128    0.0022858   -0.0000000
 C   -3.5164473    7.2067234    0.0000000  0.00    0.0005681    0.0002457   -0.0000000
 C   -3.6395894    2.3519130    0.0000000  0.00    0.0005508    0.0004024   -0.0000000
 C   -2.8600561    3.5060456    0.0000000  0.00   -0.0015964   -0.0002332   -0.0000000
 C   -3.7763177    0.0000000    0.0000000  0.00   -0.0004635   -0.0000000   -0.0000000
 C   -2.9770348    1.1274952    0.0000000  0.00   -0.0009170    0.0000861   -0.0000000
 C   -1.4136904    5.8677665    0.0000000  0.00    0.0002729   -0.0004924   -0.0000000
 C   -0.7099672    7.0898725    0.0000000  0.00   -0.0003597    0.0009212   -0.0000000
 C   -2.7583058    8.3816875    0.0000000  0.00   -0.0000669   -0.0000298   -0.0000000
 C   -1.4040093    8.3188690    0.0000000  0.00   -0.0012197   -0.0002435   -0.0000000
 C   -1.4235532    3.3444505    0.0000000  0.00    0.0004067    0.0004398   -0.0000000
 C   -0.7086651    4.5926896    0.0000000  0.00    0.0011643   -0.0010427   -0.0000000
 C   -1.5814795    0.8082062    0.0000000  0.00   -0.0002272    0.0006055   -0.0000000
 C   -0.7354184    2.0053064    0.0000000  0.00   -0.0002972   -0.0004134   -0.0000000
 H   -8.8586331    7.3707657    0.0000000  0.00    0.0000570   -0.0012737   -0.0000000
 H   -7.5633908    9.4804189    0.0000000  0.00    0.0000053   -0.0002465   -0.0000000
 H   -5.1311792    9.4342306    0.0000000  0.00   -0.0007578    0.0010711   -0.0000000
 H   -8.9205950    4.9393901    0.0000000  0.00    0.0004513   -0.0004954   -0.0000000
 H   -9.0079145    2.5086818    0.0000000  0.00   -0.0007064    0.0002141   -0.0000000
 H   -9.0459493    0.0000000    0.0000000  0.00    0.0005250   -0.0000000   -0.0000000
 H   -3.2357331    9.3496017    0.0000000  0.00   -0.0004310    0.0011118   -0.0000000
 H   -0.8650412    9.2501512    0.0000000  0.00    0.0000638    0.0008783   -0.0000000
 C    7.1148484    6.1046629    0.0000000  0.00   -0.0013436   -0.0013019   -0.0000000
 C    5.6807085    6.0661373    0.0000000  0.00    0.0009126   -0.0005250   -0.0000000
 C    7.7747381    7.3516938    0.0000000  0.00    0.0001750    0.0006605   -0.0000000
 C    4.9570411    7.2766584    0.0000000  0.00   -0.0002369   -0.0003080   -0.0000000
 C    7.0510799    8.5252264    0.0000000  0.00   -0.0002850   -0.0015595   -0.0000000
 C    5.6613254    8.4934675    0.0000000  0.00    0.0004598    0.0019942   -0.0000000
 C    7.1927617    3.6698947    0.0000000  0.00   -0.0004558   -0.0007690   -0.0000000
 C    5.7505782    3.6336768    0.0000000  0.00    0.0008473   -0.0013104   -0.0000000
 C    7.8364391    4.9046820    0.0000000  0.00   -0.0006667   -0.0005746   -0.0000000
 C    4.9930671    4.8179750    0.0000000  0.00   -0.0001664    0.0020379   -0.0000000
 C    7.2776566    1.2325572    0.0000000  0.00   -0.0003202    0.0001218   -0.0000000
 C    5.8416714    1.2224910    0.0000000  0.00    0.0012697    0.0008613   -0.0000000
 C    7.9241500    2.4655412    0.0000000  0.00   -0.0004089   -0.0003546   -0.0000000
 C    5.0769513    2.3995412    0.0000000  0.00   -0.0001525   -0.0005594   -0.0000000
 C    3.5617807    4.7521931    0.0000000  0.00   -0.0009590   -0.0021708   -0.0000000
 C    2.8352602    5.9559202    0.0000000  0.00    0.0023128    0.0022858   -0.0000000
 C    3.5164473    7.2067234    0.0000000  0.00   -0.0005681    0.0002457   -0.0000000
 C    3.6395894    2.3519130    0.0000000  0.00   -0.0005508    0.0004024   -0.0000000
 C    2.8600561    3.5060456    0.0000000  0.00    0.0015964   -0.0002332   -0.0000000
 C    2.9770348    1.1274952    0.0000000  0.00    0.0009170    0.0000861   -0.0000000
 C    1.4136904    5.8677665    0.0000000  0.00   -0.0002729   -0.0004924   -0.0000000
 C    0.7099672    7.0898725    0.0000000  0.00    0.0003597    0.0009212   -0.0000000
 C    2.7583058    8.3816875    0.0000000  0.00    0.0000669   -0.0000298   -0.0000000
 C    1.4040093    8.3188690    0.0000000  0.00    0.0012197   -0.0002435   -0.0000000
 C    1.4235532    3.3444505    0.0000000  0.00   -0.0004067    0.0004398   -0.0000000
 C    0.7086651    4.5926896    0.0000000  0.00   -0.0011643   -0.0010427   -0.0000000
 C    1.5814795    0.8082062    0.0000000  0.00    0.0002272    0.0006055   -0.0000000
 C    0.7354184    2.0053064    0.0000000  0.00    0.0002972   -0.0004134   -0.0000000
 H    8.8586331    7.3707657    0.0000000  0.00   -0.0000570   -0.0012737   -0.0000000
 H    7.5633908    9.4804189    0.0000000  0.00   -0.0000053   -0.0002465   -0.0000000
 H    5.1311792    9.4342306    0.0000000  0.00    0.0007578    0.0010711   -0.0000000
 H    8.9205950    4.9393901    0.0000000  0.00   -0.0004513   -0.0004954   -0.0000000
 H    9.0079145    2.5086818    0.0000000  0.00    0.0007064    0.0002141   -0.0000000
 H    3.2357331    9.3496017    0.0000000  0.00    0.0004310    0.0011118   -0.0000000
 H    0.8650412    9.2501512    0.0000000  0.00   -0.0000638    0.0008783   -0.0000000
 C   -7.1148484   -6.1046629    0.0000000  0.00    0.0013436    0.0013019   -0.0000000
 C   -5.6807085   -6.0661373    0.0000000  0.00   -0.0009126    0.0005250   -0.0000000
 C   -7.7747381   -7.3516938    0.0000000  0.00   -0.0001750   -0.0006605   -0.0000000
 C   -4.9570411   -7.2766584    0.0000000  0.00    0.0002369    0.0003080   -0.0000000
 C   -7.0510799   -8.5252264    0.0000000  0.00    0.0002850    0.0015595   -0.0000000
 C   -5.6613254   -8.4934675    0.0000000  0.00   -0.0004598   -0.0019942   -0.0000000
 C   -7.1927617   -3.6698947    0.0000000  0.00    0.0004558    0.0007690   -0.0000000
 C   -5.7505782   -3.6336768    0.0000000  0.00   -0.0008473    0.0013104   -0.0000000
 C   -7.8364391   -4.9046820    0.0000000  0.00    0.0006667    0.0005746   -0.0000000
 C   -4.9930671   -4.8179750    0.0000000  0.00    0.0001664   -0.0020379   -0.0000000
 C   -7.2776566   -1.2325572    0.0000000  0.00    0.0003202   -0.0001218   -0.0000000
 C   -5.8416714   -1.2224910    0.0000000  0.00   -0.0012697   -0.0008613   -0.0000000
 C   -7.9241500   -2.4655412    0.0000000  0.00    0.0004089    0.0003546   -0.0000000
 C   -5.0769513   -2.3995412    0.0000000  0.00    0.0001525    0.0005594   -0.0000000
 C   -3.5617807   -4.7521931    0.0000000  0.00    0.0009590    0.0021708   -0.0000000
 C   -2.8352602   -5.9559202    0.0000000  0.00   -0.0023128   -0.0022858   -0.0000000
 C   -3.5164473   -7.2067234    0.0000000  0.00    0.0005681   -0.0002457   -0.0000000
 C   -3.6395894   -2.3519130    0.0000000  0.00    0.0005508   -0.0004024   -0.0000000
 C   -2.8600561   -3.5060456    0.0000000  0.00   -0.0015964    0.0002332   -0.0000000
 C   -2.9770348   -1.1274952    0.0000000  0.00   -0.0009170   -0.0000861   -0.0000000
 C   -1.4136904   -5.8677665    0.0000000  0.00    0.0002729    0.0004924   -0.0000000
 C   -0.7099672   -7.0898725    0.0000000  0.00   -0.0003597   -0.0009212   -0.0000000
 C   -2.7583058   -8.3816875    0.0000000  0.00   -0.0000669    0.0000298   -0.0000000
 C   -1.4040093   -8.3188690    0.0000000  0.00   -0.0012197    0.0002435   -0.0000000
 C   -1.4235532   -3.3444505    0.0000000  0.00    0.0004067   -0.0004398   -0.0000000
 C   -0.7086651   -4.5926896    0.0000000  0.00    0.0011643    0.0010427   -0.0000000
 C   -1.5814795   -0.8082062    0.0000000  0.00   -0.0002272   -0.0006055   -0.0000000
 C   -0.7354184   -2.0053064    0.0000000  0.00   -0.0002972    0.0004134   -0.0000000
 H   -8.8586331   -7.3707657    0.0000000  0.00    0.0000570    0.0012737   -0.0000000
 H   -7.5633908   -9.4804189    0.0000000  0.00    0.0000053    0.0002465   -0.0000000
 H   -5.1311792   -9.4342306    0.0000000  0.00   -0.0007578   -0.0010711   -0.0000000
 H   -8.9205950   -4.9393901    0.0000000  0.00    0.0004513    0.0004954   -0.0000000
 H   -9.0079145   -2.5086818    0.0000000  0.00   -0.0007064   -0.0002141   -0.0000000
 H   -3.2357331   -9.3496017    0.0000000  0.00   -0.0004310   -0.0011118   -0.0000000
 H   -0.8650412   -9.2501512    0.0000000  0.00    0.0000638   -0.0008783   -0.0000000
