148
 Energy =   -4513.2449369250
 C    7.1119968   -6.0952999    0.0000000  0.00    0.0017588   -0.0002907   -0.0000000
 C    5.6795805   -6.0552756    0.0000000  0.00    0.0003138    0.0015112   -0.0000000
 C    7.7788089   -7.3414408    0.0000000  0.00    0.0014429    0.0000434   -0.0000000
 C    4.9581868   -7.2668148    0.0000000  0.00    0.0009667   -0.0009705   -0.0000000
 C    7.0582492   -8.5103564    0.0000000  0.00    0.0002833    0.0003740   -0.0000000
 C    5.6663467   -8.4772501    0.0000000  0.00    0.0014323    0.0004493   -0.0000000
 C    7.1915832   -3.6663938    0.0000000  0.00    0.0011318   -0.0016515   -0.0000000
 C    5.7532579   -3.6303022    0.0000000  0.00   -0.0034167    0.0008922   -0.0000000
 C    7.8358714   -4.9013351    0.0000000  0.00   -0.0012164    0.0019813   -0.0000000
 C    4.9950352   -4.8094287    0.0000000  0.00    0.0009671   -0.0055921   -0.0000000
 C    7.2879962   -1.2330156    0.0000000  0.00   -0.0013513    0.0003207   -0.0000000
 C    5.8490962   -1.2226710    0.0000000  0.00   -0.0005708    0.0023286   -0.0000000
 C    7.9306538   -2.4655173    0.0000000  0.00   -0.0036693   -0.0013931   -0.0000000
 C    5.0819698   -2.3944023    0.0000000  0.00   -0.0003788   -0.0032148   -0.0000000
 C    7.9764708    0.0000000    0.0000000  0.00   -0.0029737   -0.0000000   -0.0000000
 C    5.1694987    0.0000000    0.0000000  0.00    0.0014760   -0.0000000   -0.0000000
 C    3.5601322   -4.7441017    0.0000000  0.00   -0.0019283    0.0021156   -0.0000000
 C    2.8337157   -5.9479611    0.0000000  0.00   -0.0009026   -0.0032997   -0.0000000
 C    3.5151909   -7.2000361    0.0000000  0.00    0.0012111   -0.0008187   -0.0000000
 C    3.6433762   -2.3477400    0.0000000  0.00   -0.0033444    0.0065996   -0.0000000
 C    2.8622767   -3.5007852    0.0000000  0.00   -0.0000993   -0.0034568   -0.0000000
 C    3.7831190    0.0000000    0.0000000  0.00   -0.0057245   -0.0000000   -0.0000000
 C    2.9823035   -1.1251296    0.0000000  0.00   -0.0000918   -0.0038565   -0.0000000
 C    1.4135957   -5.8589059    0.0000000  0.00   -0.0003487   -0.0011588   -0.0000000
 C    0.7115792   -7.0826327    0.0000000  0.00   -0.0001029   -0.0011957   -0.0000000
 C    2.7616720   -8.3733795    0.0000000  0.00   -0.0003879    0.0004468   -0.0000000
 C    1.4046588   -8.3072555    0.0000000  0.00    0.0027952   -0.0022783   -0.0000000
 C    1.4221085   -3.3385148    0.0000000  0.00   -0.0007163    0.0019884   -0.0000000
 C    0.7102139   -4.5831525    0.0000000  0.00    0.0027492   -0.0006448   -0.0000000
 C    1.5828415   -0.8037888    0.0000000  0.00   -0.0029561    0.0038936   -0.0000000
 C    0.7369131   -1.9991778    0.0000000  0.00   -0.0013252    0.0016695   -0.0000000
 H    8.8689189   -7.3522983    0.0000000  0.00    0.0002769   -0.0031245   -0.0000000
 H    7.5674688   -9.4739500    0.0000000  0.00    0.0015350   -0.0000471   -0.0000000
 H    5.1418334   -9.4302158    0.0000000  0.00    0.0009165    0.0008134   -0.0000000
 H    8.9228835   -4.9427581    0.0000000  0.00    0.0015230    0.0016137   -0.0000000
 H    9.0147301   -2.5184793    0.0000000  0.00   -0.0013673    0.0042460   -0.0000000
 H    9.0607370    0.0000000    0.0000000  0.00    0.0005428   -0.0000000   -0.0000000
 H    3.2390276   -9.3451051    0.0000000  0.00   -0.0013344   -0.0007452   -0.0000000
 H    0.8674332   -9.2403345    0.0000000  0.00    0.0012248    0.0025164   -0.0000000
 C   -7.1119968    6.0952999    0.0000000  0.00   -0.0017588    0.0002907   -0.0000000
 C   -5.6795805    6.0552756    0.0000000  0.00   -0.0003138   -0.0015112   -0.0000000
 C   -7.7788089    7.3414408    0.0000000  0.00   -0.0014429   -0.0000434   -0.0000000
 C   -4.9581868    7.2668148    0.0000000  0.00   -0.0009667    0.0009705   -0.0000000
 C   -7.0582492    8.5103564    0.0000000  0.00   -0.0002833   -0.0003740   -0.0000000
 C   -5.6663467    8.4772501    0.0000000  0.00   -0.0014323   -0.0004493   -0.0000000
 C   -7.1915832    3.6663938    0.0000000  0.00   -0.0011318    0.0016515   -0.0000000
 C   -5.7532579    3.6303022    0.0000000  0.00    0.0034167   -0.0008922   -0.0000000
 C   -7.8358714    4.9013351    0.0000000  0.00    0.0012164   -0.0019813   -0.0000000
 C   -4.9950352    4.8094287    0.0000000  0.00   -0.0009671    0.0055921   -0.0000000
 C   -7.2879962    1.2330156    0.0000000  0.00    0.0013513   -0.0003207   -0.0000000
 C   -5.8490962    1.2226710    0.0000000  0.00    0.0005708   -0.0023286   -0.0000000
 C   -7.9306538    2.4655173    0.0000000  0.00    0.0036693    0.0013931   -0.0000000
 C   -5.0819698    2.3944023    0.0000000  0.00    0.0003788    0.0032148   -0.0000000
 C   -7.9764708    0.0000000    0.0000000  0.00    0.0029737   -0.0000000   -0.0000000
 C   -5.1694987    0.0000000    0.0000000  0.00   -0.0014760   -0.0000000   -0.0000000
 C   -3.5601322    4.7441017    0.0000000  0.00    0.0019283   -0.0021156   -0.0000000
 C   -2.8337157    5.9479611    0.0000000  0.00    0.0009026    0.0032997   -0.0000000
 C   -3.5151909    7.2000361    0.0000000  0.00   -0.0012111    0.0008187   -0.0000000
 C   -3.6433762    2.3477400    0.0000000  0.00    0.0033444   -0.0065996   -0.0000000
 C   -2.8622767    3.5007852    0.0000000  0.00    0.0000993    0.0034568   -0.0000000
 C   -3.7831190    0.0000000    0.0000000  0.00    0.0057245   -0.0000000   -0.0000000
 C   -2.9823035    1.1251296    0.0000000  0.00    0.0000918    0.0038565   -0.0000000
 C   -1.4135957    5.8589059    0.0000000  0.00    0.0003487    0.0011588   -0.0000000
 C   -0.7115792    7.0826327    0.0000000  0.00    0.0001029    0.0011957   -0.0000000
 C   -2.7616720    8.3733795    0.0000000  0.00    0.0003879   -0.0004468   -0.0000000
 C   -1.4046588    8.3072555    0.0000000  0.00   -0.0027952    0.0022783   -0.0000000
 C   -1.4221085    3.3385148    0.0000000  0.00    0.0007163   -0.0019884   -0.0000000
 C   -0.7102139    4.5831525    0.0000000  0.00   -0.0027492    0.0006448   -0.0000000
 C   -1.5828415    0.8037888    0.0000000  0.00    0.0029561   -0.0038936   -0.0000000
 C   -0.7369131    1.9991778    0.0000000  0.00    0.0013252   -0.0016695   -0.0000000
 H   -8.8689189    7.3522983    0.0000000  0.00   -0.0002769    0.0031245   -0.0000000
 H   -7.5674688    9.4739500    0.0000000  0.00   -0.0015350    0.0000471   -0.0000000
 H   -5.1418334    9.4302158    0.0000000  0.00   -0.0009165   -0.0008134   -0.0000000
 H   -8.9228835    4.9427581    0.0000000  0.00   -0.0015230   -0.0016137   -0.0000000
 H   -9.0147301    2.5184793    0.0000000  0.00    0.0013673   -0.0042460   -0.0000000
 H   -9.0607370    0.0000000    0.0000000  0.00   -0.0005428   -0.0000000   -0.0000000
 H   -3.2390276    9.3451051    0.0000000  0.00    0.0013344    0.0007452   -0.0000000
 H   -0.8674332    9.2403345    0.0000000  0.00   -0.0012248   -0.0025164   -0.0000000
 C    7.1119968    6.0952999    0.0000000  0.00    0.0017588    0.0002907   -0.0000000
 C    5.6795805    6.0552756    0.0000000  0.00    0.0003138   -0.0015112   -0.0000000
 C    7.7788089    7.3414408    0.0000000  0.00    0.0014429   -0.0000434   -0.0000000
 C    4.9581868    7.2668148    0.0000000  0.00    0.0009667    0.0009705   -0.0000000
 C    7.0582492    8.5103564    0.0000000  0.00    0.0002833   -0.0003740   -0.0000000
 C    5.6663467    8.4772501    0.0000000  0.00    0.0014323   -0.0004493   -0.0000000
 C    7.1915832    3.6663938    0.0000000  0.00    0.0011318    0.0016515   -0.0000000
 C    5.7532579    3.6303022    0.0000000  0.00   -0.0034167   -0.0008922   -0.0000000
 C    7.8358714    4.9013351    0.0000000  0.00   -0.0012164   -0.0019813   -0.0000000
 C    4.9950352    4.8094287    0.0000000  0.00    0.0009671    0.0055921   -0.0000000
 C    7.2879962    1.2330156    0.0000000  0.00   -0.0013513   -0.0003207   -0.0000000
 C    5.8490962    1.2226710    0.0000000  0.00   -0.0005708   -0.0023286   -0.0000000
 C    7.9306538    2.4655173    0.0000000  0.00   -0.0036693    0.0013931   -0.0000000
 C    5.0819698    2.3944023    0.0000000  0.00   -0.0003788    0.0032148   -0.0000000
 C    3.5601322    4.7441017    0.0000000  0.00   -0.0019283   -0.0021156   -0.0000000
 C    2.8337157    5.9479611    0.0000000  0.00   -0.0009026    0.0032997   -0.0000000
 C    3.5151909    7.2000361    0.0000000  0.00    0.0012111    0.0008187   -0.0000000
 C    3.6433762    2.3477400    0.0000000  0.00   -0.0033444   -0.0065996   -0.0000000
 C    2.8622767    3.5007852    0.0000000  0.00   -0.0000993    0.0034568   -0.0000000
 C    2.9823035    1.1251296    0.0000000  0.00   -0.0000918    0.0038565   -0.0000000
 C    1.4135957    5.8589059    0.0000000  0.00   -0.0003487    0.0011588   -0.0000000
 C    0.7115792    7.0826327    0.0000000  0.00   -0.0001029    0.0011957   -0.0000000
 C    2.7616720    8.3733795    0.0000000  0.00   -0.0003879   -0.0004468   -0.0000000
 C    1.4046588    8.3072555    0.0000000  0.00    0.0027952    0.0022783   -0.0000000
 C    1.4221085    3.3385148    0.0000000  0.00   -0.0007163   -0.0019884   -0.0000000
 C    0.7102139    4.5831525    0.0000000  0.00    0.0027492    0.0006448   -0.0000000
 C    1.5828415    0.8037888    0.0000000  0.00   -0.0029561   -0.0038936   -0.0000000
 C    0.7369131    1.9991778    0.0000000  0.00   -0.0013252   -0.0016695   -0.0000000
 H    8.8689189    7.3522983    0.0000000  0.00    0.0002769    0.0031245   -0.0000000
 H    7.5674688    9.4739500    0.0000000  0.00    0.0015350    0.0000471   -0.0000000
 H    5.1418334    9.4302158    0.0000000  0.00    0.0009165   -0.0008134   -0.0000000
 H    8.9228835    4.9427581    0.0000000  0.00    0.0015230   -0.0016137   -0.0000000
 H    9.0147301    2.5184793    0.0000000  0.00   -0.0013673   -0.0042460   -0.0000000
 H    3.2390276    9.3451051    0.0000000  0.00   -0.0013344    0.0007452   -0.0000000
 H    0.8674332    9.2403345    0.0000000  0.00    0.0012248   -0.0025164   -0.0000000
 C   -7.1119968   -6.0952999    0.0000000  0.00   -0.0017588   -0.0002907   -0.0000000
 C   -5.6795805   -6.0552756    0.0000000  0.00   -0.0003138    0.0015112   -0.0000000
 C   -7.7788089   -7.3414408    0.0000000  0.00   -0.0014429    0.0000434   -0.0000000
 C   -4.9581868   -7.2668148    0.0000000  0.00   -0.0009667   -0.0009705   -0.0000000
 C   -7.0582492   -8.5103564    0.0000000  0.00   -0.0002833    0.0003740   -0.0000000
 C   -5.6663467   -8.4772501    0.0000000  0.00   -0.0014323    0.0004493   -0.0000000
 C   -7.1915832   -3.6663938    0.0000000  0.00   -0.0011318   -0.0016515   -0.0000000
 C   -5.7532579   -3.6303022    0.0000000  0.00    0.0034167    0.0008922   -0.0000000
 C   -7.8358714   -4.9013351    0.0000000  0.00    0.0012164    0.0019813   -0.0000000
 C   -4.9950352   -4.8094287    0.0000000  0.00   -0.0009671   -0.0055921   -0.0000000
 C   -7.2879962   -1.2330156    0.0000000  0.00    0.0013513    0.0003207   -0.0000000
 C   -5.8490962   -1.2226710    0.0000000  0.00    0.0005708    0.0023286   -0.0000000
 C   -7.9306538   -2.4655173    0.0000000  0.00    0.0036693   -0.0013931   -0.0000000
 C   -5.0819698   -2.3944023    0.0000000  0.00    0.0003788   -0.0032148   -0.0000000
 C   -3.5601322   -4.7441017    0.0000000  0.00    0.0019283    0.0021156   -0.0000000
 C   -2.8337157   -5.9479611    0.0000000  0.00    0.0009026   -0.0032997   -0.0000000
 C   -3.5151909   -7.2000361    0.0000000  0.00   -0.0012111   -0.0008187   -0.0000000
 C   -3.6433762   -2.3477400    0.0000000  0.00    0.0033444    0.0065996   -0.0000000
 C   -2.8622767   -3.5007852    0.0000000  0.00    0.0000993   -0.0034568   -0.0000000
 C   -2.9823035   -1.1251296    0.0000000  0.00    0.0000918   -0.0038565   -0.0000000
 C   -1.4135957   -5.8589059    0.0000000  0.00    0.0003487   -0.0011588   -0.0000000
 C   -0.7115792   -7.0826327    0.0000000  0.00    0.0001029   -0.0011957   -0.0000000
 C   -2.7616720   -8.3733795    0.0000000  0.00    0.0003879    0.0004468   -0.0000000
 C   -1.4046588   -8.3072555    0.0000000  0.00   -0.0027952   -0.0022783   -0.0000000
 C   -1.4221085   -3.3385148    0.0000000  0.00    0.0007163    0.0019884   -0.0000000
 C   -0.7102139   -4.5831525    0.0000000  0.00   -0.0027492   -0.0006448   -0.0000000
 C   -1.5828415   -0.8037888    0.0000000  0.00    0.0029561    0.0038936   -0.0000000
 C   -0.7369131   -1.9991778    0.0000000  0.00    0.0013252    0.0016695   -0.0000000
 H   -8.8689189   -7.3522983    0.0000000  0.00   -0.0002769   -0.0031245   -0.0000000
 H   -7.5674688   -9.4739500    0.0000000  0.00   -0.0015350   -0.0000471   -0.0000000
 H   -5.1418334   -9.4302158    0.0000000  0.00   -0.0009165    0.0008134   -0.0000000
 H   -8.9228835   -4.9427581    0.0000000  0.00   -0.0015230    0.0016137   -0.0000000
 H   -9.0147301   -2.5184793    0.0000000  0.00    0.0013673    0.0042460   -0.0000000
 H   -3.2390276   -9.3451051    0.0000000  0.00    0.0013344   -0.0007452   -0.0000000
 H   -0.8674332   -9.2403345    0.0000000  0.00   -0.0012248    0.0025164   -0.0000000
