148
 Energy =   -4513.2150796850
 C    7.1156018   -6.1024433    0.0000000  0.00    0.0005726    0.0006447   -0.0000000
 C    5.6816296   -6.0664476    0.0000000  0.00   -0.0012003   -0.0001801   -0.0000000
 C    7.7801876   -7.3482006    0.0000000  0.00    0.0013135    0.0005476   -0.0000000
 C    4.9615840   -7.2758530    0.0000000  0.00    0.0005235   -0.0008606   -0.0000000
 C    7.0585052   -8.5194535    0.0000000  0.00    0.0011661    0.0006258   -0.0000000
 C    5.6695762   -8.4905605    0.0000000  0.00   -0.0005357    0.0009011   -0.0000000
 C    7.1928038   -3.6666475    0.0000000  0.00   -0.0015033    0.0020072   -0.0000000
 C    5.7495669   -3.6343886    0.0000000  0.00   -0.0016431    0.0004788   -0.0000000
 C    7.8367003   -4.9060339    0.0000000  0.00    0.0015770   -0.0004832   -0.0000000
 C    4.9945387   -4.8180624    0.0000000  0.00    0.0006870    0.0000673   -0.0000000
 C    7.2753749   -1.2296885    0.0000000  0.00    0.0007300   -0.0003512   -0.0000000
 C    5.8394198   -1.2220450    0.0000000  0.00    0.0007460    0.0013731   -0.0000000
 C    7.9215268   -2.4695091    0.0000000  0.00    0.0009047    0.0003419   -0.0000000
 C    5.0765326   -2.4035674    0.0000000  0.00    0.0009974    0.0000127   -0.0000000
 C    7.9559288    0.0000000    0.0000000  0.00    0.0003799   -0.0000000   -0.0000000
 C    5.1599651    0.0000000    0.0000000  0.00   -0.0008885   -0.0000000   -0.0000000
 C    3.5653375   -4.7558787    0.0000000  0.00   -0.0003922   -0.0024425   -0.0000000
 C    2.8366374   -5.9580664    0.0000000  0.00    0.0000121    0.0029091   -0.0000000
 C    3.5192633   -7.2098697    0.0000000  0.00   -0.0016230   -0.0012448   -0.0000000
 C    3.6414498   -2.3589030    0.0000000  0.00   -0.0015438    0.0017236   -0.0000000
 C    2.8640940   -3.5089556    0.0000000  0.00    0.0012270    0.0022709   -0.0000000
 C    3.7688701    0.0000000    0.0000000  0.00    0.0014164   -0.0000000   -0.0000000
 C    2.9769102   -1.1313574    0.0000000  0.00   -0.0007155   -0.0007948   -0.0000000
 C    1.4152750   -5.8699113    0.0000000  0.00   -0.0008459   -0.0024149   -0.0000000
 C    0.7124584   -7.0912683    0.0000000  0.00    0.0005502   -0.0010697   -0.0000000
 C    2.7637375   -8.3821493    0.0000000  0.00    0.0002615    0.0004176   -0.0000000
 C    1.4063248   -8.3155047    0.0000000  0.00    0.0009229   -0.0002988   -0.0000000
 C    1.4264666   -3.3549375    0.0000000  0.00   -0.0015643   -0.0004147   -0.0000000
 C    0.7116564   -4.5921111    0.0000000  0.00    0.0021969    0.0002774   -0.0000000
 C    1.5836934   -0.8343033    0.0000000  0.00   -0.0009924    0.0016850   -0.0000000
 C    0.7436125   -2.0086957    0.0000000  0.00    0.0006333    0.0002073   -0.0000000
 H    8.8697641   -7.3628288    0.0000000  0.00   -0.0000282    0.0018378   -0.0000000
 H    7.5707148   -9.4817722    0.0000000  0.00    0.0001304   -0.0002628   -0.0000000
 H    5.1449459   -9.4437779    0.0000000  0.00    0.0018946    0.0021213   -0.0000000
 H    8.9232099   -4.9448185    0.0000000  0.00    0.0006638   -0.0000744   -0.0000000
 H    9.0057229   -2.5138459    0.0000000  0.00   -0.0001229   -0.0009775   -0.0000000
 H    9.0405928    0.0000000    0.0000000  0.00   -0.0012068   -0.0000000   -0.0000000
 H    3.2397402   -9.3551771    0.0000000  0.00    0.0001965    0.0003980   -0.0000000
 H    0.8690916   -9.2486072    0.0000000  0.00    0.0004583    0.0005318   -0.0000000
 C   -7.1156018    6.1024433    0.0000000  0.00   -0.0005726   -0.0006447   -0.0000000
 C   -5.6816296    6.0664476    0.0000000  0.00    0.0012003    0.0001801   -0.0000000
 C   -7.7801876    7.3482006    0.0000000  0.00   -0.0013135   -0.0005476   -0.0000000
 C   -4.9615840    7.2758530    0.0000000  0.00   -0.0005235    0.0008606   -0.0000000
 C   -7.0585052    8.5194535    0.0000000  0.00   -0.0011661   -0.0006258   -0.0000000
 C   -5.6695762    8.4905605    0.0000000  0.00    0.0005357   -0.0009011   -0.0000000
 C   -7.1928038    3.6666475    0.0000000  0.00    0.0015033   -0.0020072   -0.0000000
 C   -5.7495669    3.6343886    0.0000000  0.00    0.0016431   -0.0004788   -0.0000000
 C   -7.8367003    4.9060339    0.0000000  0.00   -0.0015770    0.0004832   -0.0000000
 C   -4.9945387    4.8180624    0.0000000  0.00   -0.0006870   -0.0000673   -0.0000000
 C   -7.2753749    1.2296885    0.0000000  0.00   -0.0007300    0.0003512   -0.0000000
 C   -5.8394198    1.2220450    0.0000000  0.00   -0.0007460   -0.0013731   -0.0000000
 C   -7.9215268    2.4695091    0.0000000  0.00   -0.0009047   -0.0003419   -0.0000000
 C   -5.0765326    2.4035674    0.0000000  0.00   -0.0009974   -0.0000127   -0.0000000
 C   -7.9559288    0.0000000    0.0000000  0.00   -0.0003799   -0.0000000   -0.0000000
 C   -5.1599651    0.0000000    0.0000000  0.00    0.0008885   -0.0000000   -0.0000000
 C   -3.5653375    4.7558787    0.0000000  0.00    0.0003922    0.0024425   -0.0000000
 C   -2.8366374    5.9580664    0.0000000  0.00   -0.0000121   -0.0029091   -0.0000000
 C   -3.5192633    7.2098697    0.0000000  0.00    0.0016230    0.0012448   -0.0000000
 C   -3.6414498    2.3589030    0.0000000  0.00    0.0015438   -0.0017236   -0.0000000
 C   -2.8640940    3.5089556    0.0000000  0.00   -0.0012270   -0.0022709   -0.0000000
 C   -3.7688701    0.0000000    0.0000000  0.00   -0.0014164   -0.0000000   -0.0000000
 C   -2.9769102    1.1313574    0.0000000  0.00    0.0007155    0.0007948   -0.0000000
 C   -1.4152750    5.8699113    0.0000000  0.00    0.0008459    0.0024149   -0.0000000
 C   -0.7124584    7.0912683    0.0000000  0.00   -0.0005502    0.0010697   -0.0000000
 C   -2.7637375    8.3821493    0.0000000  0.00   -0.0002615   -0.0004176   -0.0000000
 C   -1.4063248    8.3155047    0.0000000  0.00   -0.0009229    0.0002988   -0.0000000
 C   -1.4264666    3.3549375    0.0000000  0.00    0.0015643    0.0004147   -0.0000000
 C   -0.7116564    4.5921111    0.0000000  0.00   -0.0021969   -0.0002774   -0.0000000
 C   -1.5836934    0.8343033    0.0000000  0.00    0.0009924   -0.0016850   -0.0000000
 C   -0.7436125    2.0086957    0.0000000  0.00   -0.0006333   -0.0002073   -0.0000000
 H   -8.8697641    7.3628288    0.0000000  0.00    0.0000282   -0.0018378   -0.0000000
 H   -7.5707148    9.4817722    0.0000000  0.00   -0.0001304    0.0002628   -0.0000000
 H   -5.1449459    9.4437779    0.0000000  0.00   -0.0018946   -0.0021213   -0.0000000
 H   -8.9232099    4.9448185    0.0000000  0.00   -0.0006638    0.0000744   -0.0000000
 H   -9.0057229    2.5138459    0.0000000  0.00    0.0001229    0.0009775   -0.0000000
 H   -9.0405928    0.0000000    0.0000000  0.00    0.0012068   -0.0000000   -0.0000000
 H   -3.2397402    9.3551771    0.0000000  0.00   -0.0001965   -0.0003980   -0.0000000
 H   -0.8690916    9.2486072    0.0000000  0.00   -0.0004583   -0.0005318   -0.0000000
 C    7.1156018    6.1024433    0.0000000  0.00    0.0005726   -0.0006447   -0.0000000
 C    5.6816296    6.0664476    0.0000000  0.00   -0.0012003    0.0001801   -0.0000000
 C    7.7801876    7.3482006    0.0000000  0.00    0.0013135   -0.0005476   -0.0000000
 C    4.9615840    7.2758530    0.0000000  0.00    0.0005235    0.0008606   -0.0000000
 C    7.0585052    8.5194535    0.0000000  0.00    0.0011661   -0.0006258   -0.0000000
 C    5.6695762    8.4905605    0.0000000  0.00   -0.0005357   -0.0009011   -0.0000000
 C    7.1928038    3.6666475    0.0000000  0.00   -0.0015033   -0.0020072   -0.0000000
 C    5.7495669    3.6343886    0.0000000  0.00   -0.0016431   -0.0004788   -0.0000000
 C    7.8367003    4.9060339    0.0000000  0.00    0.0015770    0.0004832   -0.0000000
 C    4.9945387    4.8180624    0.0000000  0.00    0.0006870   -0.0000673   -0.0000000
 C    7.2753749    1.2296885    0.0000000  0.00    0.0007300    0.0003512   -0.0000000
 C    5.8394198    1.2220450    0.0000000  0.00    0.0007460   -0.0013731   -0.0000000
 C    7.9215268    2.4695091    0.0000000  0.00    0.0009047   -0.0003419   -0.0000000
 C    5.0765326    2.4035674    0.0000000  0.00    0.0009974   -0.0000127   -0.0000000
 C    3.5653375    4.7558787    0.0000000  0.00   -0.0003922    0.0024425   -0.0000000
 C    2.8366374    5.9580664    0.0000000  0.00    0.0000121   -0.0029091   -0.0000000
 C    3.5192633    7.2098697    0.0000000  0.00   -0.0016230    0.0012448   -0.0000000
 C    3.6414498    2.3589030    0.0000000  0.00   -0.0015438   -0.0017236   -0.0000000
 C    2.8640940    3.5089556    0.0000000  0.00    0.0012270   -0.0022709   -0.0000000
 C    2.9769102    1.1313574    0.0000000  0.00   -0.0007155    0.0007948   -0.0000000
 C    1.4152750    5.8699113    0.0000000  0.00   -0.0008459    0.0024149   -0.0000000
 C    0.7124584    7.0912683    0.0000000  0.00    0.0005502    0.0010697   -0.0000000
 C    2.7637375    8.3821493    0.0000000  0.00    0.0002615   -0.0004176   -0.0000000
 C    1.4063248    8.3155047    0.0000000  0.00    0.0009229    0.0002988   -0.0000000
 C    1.4264666    3.3549375    0.0000000  0.00   -0.0015643    0.0004147   -0.0000000
 C    0.7116564    4.5921111    0.0000000  0.00    0.0021969   -0.0002774   -0.0000000
 C    1.5836934    0.8343033    0.0000000  0.00   -0.0009924   -0.0016850   -0.0000000
 C    0.7436125    2.0086957    0.0000000  0.00    0.0006333   -0.0002073   -0.0000000
 H    8.8697641    7.3628288    0.0000000  0.00   -0.0000282   -0.0018378   -0.0000000
 H    7.5707148    9.4817722    0.0000000  0.00    0.0001304    0.0002628   -0.0000000
 H    5.1449459    9.4437779    0.0000000  0.00    0.0018946   -0.0021213   -0.0000000
 H    8.9232099    4.9448185    0.0000000  0.00    0.0006638    0.0000744   -0.0000000
 H    9.0057229    2.5138459    0.0000000  0.00   -0.0001229    0.0009775   -0.0000000
 H    3.2397402    9.3551771    0.0000000  0.00    0.0001965   -0.0003980   -0.0000000
 H    0.8690916    9.2486072    0.0000000  0.00    0.0004583   -0.0005318   -0.0000000
 C   -7.1156018   -6.1024433    0.0000000  0.00   -0.0005726    0.0006447   -0.0000000
 C   -5.6816296   -6.0664476    0.0000000  0.00    0.0012003   -0.0001801   -0.0000000
 C   -7.7801876   -7.3482006    0.0000000  0.00   -0.0013135    0.0005476   -0.0000000
 C   -4.9615840   -7.2758530    0.0000000  0.00   -0.0005235   -0.0008606   -0.0000000
 C   -7.0585052   -8.5194535    0.0000000  0.00   -0.0011661    0.0006258   -0.0000000
 C   -5.6695762   -8.4905605    0.0000000  0.00    0.0005357    0.0009011   -0.0000000
 C   -7.1928038   -3.6666475    0.0000000  0.00    0.0015033    0.0020072   -0.0000000
 C   -5.7495669   -3.6343886    0.0000000  0.00    0.0016431    0.0004788   -0.0000000
 C   -7.8367003   -4.9060339    0.0000000  0.00   -0.0015770   -0.0004832   -0.0000000
 C   -4.9945387   -4.8180624    0.0000000  0.00   -0.0006870    0.0000673   -0.0000000
 C   -7.2753749   -1.2296885    0.0000000  0.00   -0.0007300   -0.0003512   -0.0000000
 C   -5.8394198   -1.2220450    0.0000000  0.00   -0.0007460    0.0013731   -0.0000000
 C   -7.9215268   -2.4695091    0.0000000  0.00   -0.0009047    0.0003419   -0.0000000
 C   -5.0765326   -2.4035674    0.0000000  0.00   -0.0009974    0.0000127   -0.0000000
 C   -3.5653375   -4.7558787    0.0000000  0.00    0.0003922   -0.0024425   -0.0000000
 C   -2.8366374   -5.9580664    0.0000000  0.00   -0.0000121    0.0029091   -0.0000000
 C   -3.5192633   -7.2098697    0.0000000  0.00    0.0016230   -0.0012448   -0.0000000
 C   -3.6414498   -2.3589030    0.0000000  0.00    0.0015438    0.0017236   -0.0000000
 C   -2.8640940   -3.5089556    0.0000000  0.00   -0.0012270    0.0022709   -0.0000000
 C   -2.9769102   -1.1313574    0.0000000  0.00    0.0007155   -0.0007948   -0.0000000
 C   -1.4152750   -5.8699113    0.0000000  0.00    0.0008459   -0.0024149   -0.0000000
 C   -0.7124584   -7.0912683    0.0000000  0.00   -0.0005502   -0.0010697   -0.0000000
 C   -2.7637375   -8.3821493    0.0000000  0.00   -0.0002615    0.0004176   -0.0000000
 C   -1.4063248   -8.3155047    0.0000000  0.00   -0.0009229   -0.0002988   -0.0000000
 C   -1.4264666   -3.3549375    0.0000000  0.00    0.0015643   -0.0004147   -0.0000000
 C   -0.7116564   -4.5921111    0.0000000  0.00   -0.0021969    0.0002774   -0.0000000
 C   -1.5836934   -0.8343033    0.0000000  0.00    0.0009924    0.0016850   -0.0000000
 C   -0.7436125   -2.0086957    0.0000000  0.00   -0.0006333    0.0002073   -0.0000000
 H   -8.8697641   -7.3628288    0.0000000  0.00    0.0000282    0.0018378   -0.0000000
 H   -7.5707148   -9.4817722    0.0000000  0.00   -0.0001304   -0.0002628   -0.0000000
 H   -5.1449459   -9.4437779    0.0000000  0.00   -0.0018946    0.0021213   -0.0000000
 H   -8.9232099   -4.9448185    0.0000000  0.00   -0.0006638   -0.0000744   -0.0000000
 H   -9.0057229   -2.5138459    0.0000000  0.00    0.0001229   -0.0009775   -0.0000000
 H   -3.2397402   -9.3551771    0.0000000  0.00   -0.0001965    0.0003980   -0.0000000
 H   -0.8690916   -9.2486072    0.0000000  0.00   -0.0004583    0.0005318   -0.0000000
