148
 Energy =   -4513.2669223810
 C    7.1158713   -6.0971453    0.0000000  0.00    0.0001739   -0.0009811   -0.0000000
 C    5.6840529   -6.0551171    0.0000000  0.00   -0.0010967   -0.0013852   -0.0000000
 C    7.7789833   -7.3432858    0.0000000  0.00   -0.0006494   -0.0005116   -0.0000000
 C    4.9599696   -7.2646480    0.0000000  0.00    0.0007369    0.0002919   -0.0000000
 C    7.0549818   -8.5116117    0.0000000  0.00   -0.0001313   -0.0000632   -0.0000000
 C    5.6619470   -8.4753724    0.0000000  0.00   -0.0000349    0.0000482   -0.0000000
 C    7.1979613   -3.6656836    0.0000000  0.00    0.0000813   -0.0000015   -0.0000000
 C    5.7557302   -3.6293622    0.0000000  0.00   -0.0000132    0.0002527   -0.0000000
 C    7.8397600   -4.8990319    0.0000000  0.00   -0.0008116   -0.0000333   -0.0000000
 C    5.0001906   -4.8068967    0.0000000  0.00    0.0007255    0.0009760   -0.0000000
 C    7.2933218   -1.2292188    0.0000000  0.00   -0.0004051    0.0003156   -0.0000000
 C    5.8533943   -1.2199497    0.0000000  0.00    0.0002821    0.0005619   -0.0000000
 C    7.9348745   -2.4651822    0.0000000  0.00    0.0000120   -0.0004755   -0.0000000
 C    5.0845572   -2.3943242    0.0000000  0.00    0.0007469   -0.0008043   -0.0000000
 C    7.9783179    0.0000000    0.0000000  0.00    0.0007950   -0.0000000   -0.0000000
 C    5.1746815    0.0000000    0.0000000  0.00    0.0005685   -0.0000000   -0.0000000
 C    3.5621746   -4.7389401    0.0000000  0.00   -0.0018428   -0.0013136   -0.0000000
 C    2.8347592   -5.9448909    0.0000000  0.00    0.0014917    0.0007804   -0.0000000
 C    3.5136974   -7.1972271    0.0000000  0.00   -0.0009677   -0.0007644   -0.0000000
 C    3.6462452   -2.3456708    0.0000000  0.00   -0.0014798    0.0011885   -0.0000000
 C    2.8659730   -3.4994606    0.0000000  0.00    0.0011161   -0.0001919   -0.0000000
 C    3.7839171    0.0000000    0.0000000  0.00    0.0023415   -0.0000000   -0.0000000
 C    2.9851906   -1.1219730    0.0000000  0.00    0.0008507   -0.0016621   -0.0000000
 C    1.4154882   -5.8542473    0.0000000  0.00   -0.0013100   -0.0004781   -0.0000000
 C    0.7128752   -7.0772256    0.0000000  0.00   -0.0002241    0.0007780   -0.0000000
 C    2.7590375   -8.3666654    0.0000000  0.00    0.0000219   -0.0000726   -0.0000000
 C    1.4012504   -8.3008463    0.0000000  0.00   -0.0006288    0.0002915   -0.0000000
 C    1.4211960   -3.3357383    0.0000000  0.00   -0.0011515   -0.0001284   -0.0000000
 C    0.7120737   -4.5756104    0.0000000  0.00    0.0007353    0.0000433   -0.0000000
 C    1.5825717   -0.7932070    0.0000000  0.00    0.0010710   -0.0000664   -0.0000000
 C    0.7336810   -1.9971119    0.0000000  0.00    0.0000682   -0.0006784   -0.0000000
 H    8.8656707   -7.3597725    0.0000000  0.00   -0.0001623   -0.0003794   -0.0000000
 H    7.5616571   -9.4732262    0.0000000  0.00   -0.0002108    0.0002014   -0.0000000
 H    5.1301489   -9.4224476    0.0000000  0.00    0.0017540   -0.0008871   -0.0000000
 H    8.9250849   -4.9374460    0.0000000  0.00   -0.0003476   -0.0002456   -0.0000000
 H    9.0185912   -2.5140373    0.0000000  0.00   -0.0004110   -0.0000737   -0.0000000
 H    9.0628004    0.0000000    0.0000000  0.00   -0.0006043   -0.0000000   -0.0000000
 H    3.2251372   -9.3487432    0.0000000  0.00   -0.0008924    0.0005817   -0.0000000
 H    0.8687062   -9.2464145    0.0000000  0.00    0.0013116    0.0001795   -0.0000000
 C   -7.1158713    6.0971453    0.0000000  0.00   -0.0001739    0.0009811   -0.0000000
 C   -5.6840529    6.0551171    0.0000000  0.00    0.0010967    0.0013852   -0.0000000
 C   -7.7789833    7.3432858    0.0000000  0.00    0.0006494    0.0005116   -0.0000000
 C   -4.9599696    7.2646480    0.0000000  0.00   -0.0007369   -0.0002919   -0.0000000
 C   -7.0549818    8.5116117    0.0000000  0.00    0.0001313    0.0000632   -0.0000000
 C   -5.6619470    8.4753724    0.0000000  0.00    0.0000349   -0.0000482   -0.0000000
 C   -7.1979613    3.6656836    0.0000000  0.00   -0.0000813    0.0000015   -0.0000000
 C   -5.7557302    3.6293622    0.0000000  0.00    0.0000132   -0.0002527   -0.0000000
 C   -7.8397600    4.8990319    0.0000000  0.00    0.0008116    0.0000333   -0.0000000
 C   -5.0001906    4.8068967    0.0000000  0.00   -0.0007255   -0.0009760   -0.0000000
 C   -7.2933218    1.2292188    0.0000000  0.00    0.0004051   -0.0003156   -0.0000000
 C   -5.8533943    1.2199497    0.0000000  0.00   -0.0002821   -0.0005619   -0.0000000
 C   -7.9348745    2.4651822    0.0000000  0.00   -0.0000120    0.0004755   -0.0000000
 C   -5.0845572    2.3943242    0.0000000  0.00   -0.0007469    0.0008043   -0.0000000
 C   -7.9783179    0.0000000    0.0000000  0.00   -0.0007950   -0.0000000   -0.0000000
 C   -5.1746815    0.0000000    0.0000000  0.00   -0.0005685   -0.0000000   -0.0000000
 C   -3.5621746    4.7389401    0.0000000  0.00    0.0018428    0.0013136   -0.0000000
 C   -2.8347592    5.9448909    0.0000000  0.00   -0.0014917   -0.0007804   -0.0000000
 C   -3.5136974    7.1972271    0.0000000  0.00    0.0009677    0.0007644   -0.0000000
 C   -3.6462452    2.3456708    0.0000000  0.00    0.0014798   -0.0011885   -0.0000000
 C   -2.8659730    3.4994606    0.0000000  0.00   -0.0011161    0.0001919   -0.0000000
 C   -3.7839171    0.0000000    0.0000000  0.00   -0.0023415   -0.0000000   -0.0000000
 C   -2.9851906    1.1219730    0.0000000  0.00   -0.0008507    0.0016621   -0.0000000
 C   -1.4154882    5.8542473    0.0000000  0.00    0.0013100    0.0004781   -0.0000000
 C   -0.7128752    7.0772256    0.0000000  0.00    0.0002241   -0.0007780   -0.0000000
 C   -2.7590375    8.3666654    0.0000000  0.00   -0.0000219    0.0000726   -0.0000000
 C   -1.4012504    8.3008463    0.0000000  0.00    0.0006288   -0.0002915   -0.0000000
 C   -1.4211960    3.3357383    0.0000000  0.00    0.0011515    0.0001284   -0.0000000
 C   -0.7120737    4.5756104    0.0000000  0.00   -0.0007353   -0.0000433   -0.0000000
 C   -1.5825717    0.7932070    0.0000000  0.00   -0.0010710    0.0000664   -0.0000000
 C   -0.7336810    1.9971119    0.0000000  0.00   -0.0000682    0.0006784   -0.0000000
 H   -8.8656707    7.3597725    0.0000000  0.00    0.0001623    0.0003794   -0.0000000
 H   -7.5616571    9.4732262    0.0000000  0.00    0.0002108   -0.0002014   -0.0000000
 H   -5.1301489    9.4224476    0.0000000  0.00   -0.0017540    0.0008871   -0.0000000
 H   -8.9250849    4.9374460    0.0000000  0.00    0.0003476    0.0002456   -0.0000000
 H   -9.0185912    2.5140373    0.0000000  0.00    0.0004110    0.0000737   -0.0000000
 H   -9.0628004    0.0000000    0.0000000  0.00    0.0006043   -0.0000000   -0.0000000
 H   -3.2251372    9.3487432    0.0000000  0.00    0.0008924   -0.0005817   -0.0000000
 H   -0.8687062    9.2464145    0.0000000  0.00   -0.0013116   -0.0001795   -0.0000000
 C    7.1158713    6.0971453    0.0000000  0.00    0.0001739    0.0009811   -0.0000000
 C    5.6840529    6.0551171    0.0000000  0.00   -0.0010967    0.0013852   -0.0000000
 C    7.7789833    7.3432858    0.0000000  0.00   -0.0006494    0.0005116   -0.0000000
 C    4.9599696    7.2646480    0.0000000  0.00    0.0007369   -0.0002919   -0.0000000
 C    7.0549818    8.5116117    0.0000000  0.00   -0.0001313    0.0000632   -0.0000000
 C    5.6619470    8.4753724    0.0000000  0.00   -0.0000349   -0.0000482   -0.0000000
 C    7.1979613    3.6656836    0.0000000  0.00    0.0000813    0.0000015   -0.0000000
 C    5.7557302    3.6293622    0.0000000  0.00   -0.0000132   -0.0002527   -0.0000000
 C    7.8397600    4.8990319    0.0000000  0.00   -0.0008116    0.0000333   -0.0000000
 C    5.0001906    4.8068967    0.0000000  0.00    0.0007255   -0.0009760   -0.0000000
 C    7.2933218    1.2292188    0.0000000  0.00   -0.0004051   -0.0003156   -0.0000000
 C    5.8533943    1.2199497    0.0000000  0.00    0.0002821   -0.0005619   -0.0000000
 C    7.9348745    2.4651822    0.0000000  0.00    0.0000120    0.0004755   -0.0000000
 C    5.0845572    2.3943242    0.0000000  0.00    0.0007469    0.0008043   -0.0000000
 C    3.5621746    4.7389401    0.0000000  0.00   -0.0018428    0.0013136   -0.0000000
 C    2.8347592    5.9448909    0.0000000  0.00    0.0014917   -0.0007804   -0.0000000
 C    3.5136974    7.1972271    0.0000000  0.00   -0.0009677    0.0007644   -0.0000000
 C    3.6462452    2.3456708    0.0000000  0.00   -0.0014798   -0.0011885   -0.0000000
 C    2.8659730    3.4994606    0.0000000  0.00    0.0011161    0.0001919   -0.0000000
 C    2.9851906    1.1219730    0.0000000  0.00    0.0008507    0.0016621   -0.0000000
 C    1.4154882    5.8542473    0.0000000  0.00   -0.0013100    0.0004781   -0.0000000
 C    0.7128752    7.0772256    0.0000000  0.00   -0.0002241   -0.0007780   -0.0000000
 C    2.7590375    8.3666654    0.0000000  0.00    0.0000219    0.0000726   -0.0000000
 C    1.4012504    8.3008463    0.0000000  0.00   -0.0006288   -0.0002915   -0.0000000
 C    1.4211960    3.3357383    0.0000000  0.00   -0.0011515    0.0001284   -0.0000000
 C    0.7120737    4.5756104    0.0000000  0.00    0.0007353   -0.0000433   -0.0000000
 C    1.5825717    0.7932070    0.0000000  0.00    0.0010710    0.0000664   -0.0000000
 C    0.7336810    1.9971119    0.0000000  0.00    0.0000682    0.0006784   -0.0000000
 H    8.8656707    7.3597725    0.0000000  0.00   -0.0001623    0.0003794   -0.0000000
 H    7.5616571    9.4732262    0.0000000  0.00   -0.0002108   -0.0002014   -0.0000000
 H    5.1301489    9.4224476    0.0000000  0.00    0.0017540    0.0008871   -0.0000000
 H    8.9250849    4.9374460    0.0000000  0.00   -0.0003476    0.0002456   -0.0000000
 H    9.0185912    2.5140373    0.0000000  0.00   -0.0004110    0.0000737   -0.0000000
 H    3.2251372    9.3487432    0.0000000  0.00   -0.0008924   -0.0005817   -0.0000000
 H    0.8687062    9.2464145    0.0000000  0.00    0.0013116   -0.0001795   -0.0000000
 C   -7.1158713   -6.0971453    0.0000000  0.00   -0.0001739   -0.0009811   -0.0000000
 C   -5.6840529   -6.0551171    0.0000000  0.00    0.0010967   -0.0013852   -0.0000000
 C   -7.7789833   -7.3432858    0.0000000  0.00    0.0006494   -0.0005116   -0.0000000
 C   -4.9599696   -7.2646480    0.0000000  0.00   -0.0007369    0.0002919   -0.0000000
 C   -7.0549818   -8.5116117    0.0000000  0.00    0.0001313   -0.0000632   -0.0000000
 C   -5.6619470   -8.4753724    0.0000000  0.00    0.0000349    0.0000482   -0.0000000
 C   -7.1979613   -3.6656836    0.0000000  0.00   -0.0000813   -0.0000015   -0.0000000
 C   -5.7557302   -3.6293622    0.0000000  0.00    0.0000132    0.0002527   -0.0000000
 C   -7.8397600   -4.8990319    0.0000000  0.00    0.0008116   -0.0000333   -0.0000000
 C   -5.0001906   -4.8068967    0.0000000  0.00   -0.0007255    0.0009760   -0.0000000
 C   -7.2933218   -1.2292188    0.0000000  0.00    0.0004051    0.0003156   -0.0000000
 C   -5.8533943   -1.2199497    0.0000000  0.00   -0.0002821    0.0005619   -0.0000000
 C   -7.9348745   -2.4651822    0.0000000  0.00   -0.0000120   -0.0004755   -0.0000000
 C   -5.0845572   -2.3943242    0.0000000  0.00   -0.0007469   -0.0008043   -0.0000000
 C   -3.5621746   -4.7389401    0.0000000  0.00    0.0018428   -0.0013136   -0.0000000
 C   -2.8347592   -5.9448909    0.0000000  0.00   -0.0014917    0.0007804   -0.0000000
 C   -3.5136974   -7.1972271    0.0000000  0.00    0.0009677   -0.0007644   -0.0000000
 C   -3.6462452   -2.3456708    0.0000000  0.00    0.0014798    0.0011885   -0.0000000
 C   -2.8659730   -3.4994606    0.0000000  0.00   -0.0011161   -0.0001919   -0.0000000
 C   -2.9851906   -1.1219730    0.0000000  0.00   -0.0008507   -0.0016621   -0.0000000
 C   -1.4154882   -5.8542473    0.0000000  0.00    0.0013100   -0.0004781   -0.0000000
 C   -0.7128752   -7.0772256    0.0000000  0.00    0.0002241    0.0007780   -0.0000000
 C   -2.7590375   -8.3666654    0.0000000  0.00   -0.0000219   -0.0000726   -0.0000000
 C   -1.4012504   -8.3008463    0.0000000  0.00    0.0006288    0.0002915   -0.0000000
 C   -1.4211960   -3.3357383    0.0000000  0.00    0.0011515   -0.0001284   -0.0000000
 C   -0.7120737   -4.5756104    0.0000000  0.00   -0.0007353    0.0000433   -0.0000000
 C   -1.5825717   -0.7932070    0.0000000  0.00   -0.0010710   -0.0000664   -0.0000000
 C   -0.7336810   -1.9971119    0.0000000  0.00   -0.0000682   -0.0006784   -0.0000000
 H   -8.8656707   -7.3597725    0.0000000  0.00    0.0001623   -0.0003794   -0.0000000
 H   -7.5616571   -9.4732262    0.0000000  0.00    0.0002108    0.0002014   -0.0000000
 H   -5.1301489   -9.4224476    0.0000000  0.00   -0.0017540   -0.0008871   -0.0000000
 H   -8.9250849   -4.9374460    0.0000000  0.00    0.0003476   -0.0002456   -0.0000000
 H   -9.0185912   -2.5140373    0.0000000  0.00    0.0004110   -0.0000737   -0.0000000
 H   -3.2251372   -9.3487432    0.0000000  0.00    0.0008924    0.0005817   -0.0000000
 H   -0.8687062   -9.2464145    0.0000000  0.00   -0.0013116    0.0001795   -0.0000000
