148
 Energy =   -4513.3943723110
 C    7.1101404   -6.1077778    0.0000000  0.00   -0.0008450    0.0005066   -0.0000000
 C    5.6760843   -6.0702545    0.0000000  0.00    0.0002552   -0.0006421   -0.0000000
 C    7.7702838   -7.3535312    0.0000000  0.00    0.0001888   -0.0001856   -0.0000000
 C    4.9527665   -7.2798381    0.0000000  0.00    0.0001897    0.0010294   -0.0000000
 C    7.0465834   -8.5291073    0.0000000  0.00   -0.0000813    0.0013427   -0.0000000
 C    5.6587818   -8.4991309    0.0000000  0.00    0.0002213   -0.0011920   -0.0000000
 C    7.1869280   -3.6710443    0.0000000  0.00   -0.0003883   -0.0001598   -0.0000000
 C    5.7453311   -3.6345861    0.0000000  0.00    0.0006116    0.0000088   -0.0000000
 C    7.8309831   -4.9063320    0.0000000  0.00    0.0003354    0.0005533   -0.0000000
 C    4.9872719   -4.8212202    0.0000000  0.00   -0.0000955    0.0010003   -0.0000000
 C    7.2708870   -1.2324868    0.0000000  0.00    0.0005493   -0.0002146   -0.0000000
 C    5.8369094   -1.2224114    0.0000000  0.00    0.0008137   -0.0002412   -0.0000000
 C    7.9177617   -2.4670605    0.0000000  0.00    0.0007084    0.0002424   -0.0000000
 C    5.0719836   -2.4023853    0.0000000  0.00   -0.0005871   -0.0006239   -0.0000000
 C    7.9546738    0.0000000    0.0000000  0.00    0.0003337   -0.0000000   -0.0000000
 C    5.1594111    0.0000000    0.0000000  0.00   -0.0025159   -0.0000000   -0.0000000
 C    3.5601436   -4.7565380    0.0000000  0.00   -0.0003253   -0.0004268   -0.0000000
 C    2.8337387   -5.9618023    0.0000000  0.00    0.0001884   -0.0000056   -0.0000000
 C    3.5146241   -7.2107265    0.0000000  0.00   -0.0000509   -0.0008133   -0.0000000
 C    3.6357598   -2.3549774    0.0000000  0.00    0.0007955   -0.0021270   -0.0000000
 C    2.8570016   -3.5070386    0.0000000  0.00   -0.0000492    0.0001801   -0.0000000
 C    3.7719294    0.0000000    0.0000000  0.00    0.0032926   -0.0000000   -0.0000000
 C    2.9726860   -1.1274308    0.0000000  0.00   -0.0010731    0.0012458   -0.0000000
 C    1.4121038   -5.8744698    0.0000000  0.00   -0.0002896    0.0008500   -0.0000000
 C    0.7086756   -7.0943214    0.0000000  0.00    0.0006759    0.0001168   -0.0000000
 C    2.7554852   -8.3897577    0.0000000  0.00    0.0003062    0.0001605   -0.0000000
 C    1.4040513   -8.3279201    0.0000000  0.00    0.0004177   -0.0002519   -0.0000000
 C    1.4222231   -3.3459384    0.0000000  0.00   -0.0009369   -0.0001807   -0.0000000
 C    0.7058921   -4.5975556    0.0000000  0.00    0.0016152   -0.0000053   -0.0000000
 C    1.5813292   -0.8095809    0.0000000  0.00   -0.0001211   -0.0001502   -0.0000000
 C    0.7343429   -2.0112208    0.0000000  0.00   -0.0001628   -0.0003476   -0.0000000
 H    8.8541380   -7.3722700    0.0000000  0.00    0.0003009    0.0008435   -0.0000000
 H    7.5603734   -9.4835075    0.0000000  0.00    0.0002857    0.0002020   -0.0000000
 H    5.1286312   -9.4397393    0.0000000  0.00    0.0010843   -0.0011286   -0.0000000
 H    8.9151623   -4.9406436    0.0000000  0.00   -0.0007827    0.0008097   -0.0000000
 H    9.0015730   -2.5098075    0.0000000  0.00    0.0001884   -0.0001584   -0.0000000
 H    9.0394446    0.0000000    0.0000000  0.00    0.0008180   -0.0000000   -0.0000000
 H    3.2344962   -9.3567738    0.0000000  0.00    0.0009870   -0.0014018   -0.0000000
 H    0.8640268   -9.2584277    0.0000000  0.00    0.0006756   -0.0006337   -0.0000000
 C   -7.1101404    6.1077778    0.0000000  0.00    0.0008450   -0.0005066   -0.0000000
 C   -5.6760843    6.0702545    0.0000000  0.00   -0.0002552    0.0006421   -0.0000000
 C   -7.7702838    7.3535312    0.0000000  0.00   -0.0001888    0.0001856   -0.0000000
 C   -4.9527665    7.2798381    0.0000000  0.00   -0.0001897   -0.0010294   -0.0000000
 C   -7.0465834    8.5291073    0.0000000  0.00    0.0000813   -0.0013427   -0.0000000
 C   -5.6587818    8.4991309    0.0000000  0.00   -0.0002213    0.0011920   -0.0000000
 C   -7.1869280    3.6710443    0.0000000  0.00    0.0003883    0.0001598   -0.0000000
 C   -5.7453311    3.6345861    0.0000000  0.00   -0.0006116   -0.0000088   -0.0000000
 C   -7.8309831    4.9063320    0.0000000  0.00   -0.0003354   -0.0005533   -0.0000000
 C   -4.9872719    4.8212202    0.0000000  0.00    0.0000955   -0.0010003   -0.0000000
 C   -7.2708870    1.2324868    0.0000000  0.00   -0.0005493    0.0002146   -0.0000000
 C   -5.8369094    1.2224114    0.0000000  0.00   -0.0008137    0.0002412   -0.0000000
 C   -7.9177617    2.4670605    0.0000000  0.00   -0.0007084   -0.0002424   -0.0000000
 C   -5.0719836    2.4023853    0.0000000  0.00    0.0005871    0.0006239   -0.0000000
 C   -7.9546738    0.0000000    0.0000000  0.00   -0.0003337   -0.0000000   -0.0000000
 C   -5.1594111    0.0000000    0.0000000  0.00    0.0025159   -0.0000000   -0.0000000
 C   -3.5601436    4.7565380    0.0000000  0.00    0.0003253    0.0004268   -0.0000000
 C   -2.8337387    5.9618023    0.0000000  0.00   -0.0001884    0.0000056   -0.0000000
 C   -3.5146241    7.2107265    0.0000000  0.00    0.0000509    0.0008133   -0.0000000
 C   -3.6357598    2.3549774    0.0000000  0.00   -0.0007955    0.0021270   -0.0000000
 C   -2.8570016    3.5070386    0.0000000  0.00    0.0000492   -0.0001801   -0.0000000
 C   -3.7719294    0.0000000    0.0000000  0.00   -0.0032926   -0.0000000   -0.0000000
 C   -2.9726860    1.1274308    0.0000000  0.00    0.0010731   -0.0012458   -0.0000000
 C   -1.4121038    5.8744698    0.0000000  0.00    0.0002896   -0.0008500   -0.0000000
 C   -0.7086756    7.0943214    0.0000000  0.00   -0.0006759   -0.0001168   -0.0000000
 C   -2.7554852    8.3897577    0.0000000  0.00   -0.0003062   -0.0001605   -0.0000000
 C   -1.4040513    8.3279201    0.0000000  0.00   -0.0004177    0.0002519   -0.0000000
 C   -1.4222231    3.3459384    0.0000000  0.00    0.0009369    0.0001807   -0.0000000
 C   -0.7058921    4.5975556    0.0000000  0.00   -0.0016152    0.0000053   -0.0000000
 C   -1.5813292    0.8095809    0.0000000  0.00    0.0001211    0.0001502   -0.0000000
 C   -0.7343429    2.0112208    0.0000000  0.00    0.0001628    0.0003476   -0.0000000
 H   -8.8541380    7.3722700    0.0000000  0.00   -0.0003009   -0.0008435   -0.0000000
 H   -7.5603734    9.4835075    0.0000000  0.00   -0.0002857   -0.0002020   -0.0000000
 H   -5.1286312    9.4397393    0.0000000  0.00   -0.0010843    0.0011286   -0.0000000
 H   -8.9151623    4.9406436    0.0000000  0.00    0.0007827   -0.0008097   -0.0000000
 H   -9.0015730    2.5098075    0.0000000  0.00   -0.0001884    0.0001584   -0.0000000
 H   -9.0394446    0.0000000    0.0000000  0.00   -0.0008180   -0.0000000   -0.0000000
 H   -3.2344962    9.3567738    0.0000000  0.00   -0.0009870    0.0014018   -0.0000000
 H   -0.8640268    9.2584277    0.0000000  0.00   -0.0006756    0.0006337   -0.0000000
 C    7.1101404    6.1077778    0.0000000  0.00   -0.0008450   -0.0005066   -0.0000000
 C    5.6760843    6.0702545    0.0000000  0.00    0.0002552    0.0006421   -0.0000000
 C    7.7702838    7.3535312    0.0000000  0.00    0.0001888    0.0001856   -0.0000000
 C    4.9527665    7.2798381    0.0000000  0.00    0.0001897   -0.0010294   -0.0000000
 C    7.0465834    8.5291073    0.0000000  0.00   -0.0000813   -0.0013427   -0.0000000
 C    5.6587818    8.4991309    0.0000000  0.00    0.0002213    0.0011920   -0.0000000
 C    7.1869280    3.6710443    0.0000000  0.00   -0.0003883    0.0001598   -0.0000000
 C    5.7453311    3.6345861    0.0000000  0.00    0.0006116   -0.0000088   -0.0000000
 C    7.8309831    4.9063320    0.0000000  0.00    0.0003354   -0.0005533   -0.0000000
 C    4.9872719    4.8212202    0.0000000  0.00   -0.0000955   -0.0010003   -0.0000000
 C    7.2708870    1.2324868    0.0000000  0.00    0.0005493    0.0002146   -0.0000000
 C    5.8369094    1.2224114    0.0000000  0.00    0.0008137    0.0002412   -0.0000000
 C    7.9177617    2.4670605    0.0000000  0.00    0.0007084   -0.0002424   -0.0000000
 C    5.0719836    2.4023853    0.0000000  0.00   -0.0005871    0.0006239   -0.0000000
 C    3.5601436    4.7565380    0.0000000  0.00   -0.0003253    0.0004268   -0.0000000
 C    2.8337387    5.9618023    0.0000000  0.00    0.0001884    0.0000056   -0.0000000
 C    3.5146241    7.2107265    0.0000000  0.00   -0.0000509    0.0008133   -0.0000000
 C    3.6357598    2.3549774    0.0000000  0.00    0.0007955    0.0021270   -0.0000000
 C    2.8570016    3.5070386    0.0000000  0.00   -0.0000492   -0.0001801   -0.0000000
 C    2.9726860    1.1274308    0.0000000  0.00   -0.0010731   -0.0012458   -0.0000000
 C    1.4121038    5.8744698    0.0000000  0.00   -0.0002896   -0.0008500   -0.0000000
 C    0.7086756    7.0943214    0.0000000  0.00    0.0006759   -0.0001168   -0.0000000
 C    2.7554852    8.3897577    0.0000000  0.00    0.0003062   -0.0001605   -0.0000000
 C    1.4040513    8.3279201    0.0000000  0.00    0.0004177    0.0002519   -0.0000000
 C    1.4222231    3.3459384    0.0000000  0.00   -0.0009369    0.0001807   -0.0000000
 C    0.7058921    4.5975556    0.0000000  0.00    0.0016152    0.0000053   -0.0000000
 C    1.5813292    0.8095809    0.0000000  0.00   -0.0001211    0.0001502   -0.0000000
 C    0.7343429    2.0112208    0.0000000  0.00   -0.0001628    0.0003476   -0.0000000
 H    8.8541380    7.3722700    0.0000000  0.00    0.0003009   -0.0008435   -0.0000000
 H    7.5603734    9.4835075    0.0000000  0.00    0.0002857   -0.0002020   -0.0000000
 H    5.1286312    9.4397393    0.0000000  0.00    0.0010843    0.0011286   -0.0000000
 H    8.9151623    4.9406436    0.0000000  0.00   -0.0007827   -0.0008097   -0.0000000
 H    9.0015730    2.5098075    0.0000000  0.00    0.0001884    0.0001584   -0.0000000
 H    3.2344962    9.3567738    0.0000000  0.00    0.0009870    0.0014018   -0.0000000
 H    0.8640268    9.2584277    0.0000000  0.00    0.0006756    0.0006337   -0.0000000
 C   -7.1101404   -6.1077778    0.0000000  0.00    0.0008450    0.0005066   -0.0000000
 C   -5.6760843   -6.0702545    0.0000000  0.00   -0.0002552   -0.0006421   -0.0000000
 C   -7.7702838   -7.3535312    0.0000000  0.00   -0.0001888   -0.0001856   -0.0000000
 C   -4.9527665   -7.2798381    0.0000000  0.00   -0.0001897    0.0010294   -0.0000000
 C   -7.0465834   -8.5291073    0.0000000  0.00    0.0000813    0.0013427   -0.0000000
 C   -5.6587818   -8.4991309    0.0000000  0.00   -0.0002213   -0.0011920   -0.0000000
 C   -7.1869280   -3.6710443    0.0000000  0.00    0.0003883   -0.0001598   -0.0000000
 C   -5.7453311   -3.6345861    0.0000000  0.00   -0.0006116    0.0000088   -0.0000000
 C   -7.8309831   -4.9063320    0.0000000  0.00   -0.0003354    0.0005533   -0.0000000
 C   -4.9872719   -4.8212202    0.0000000  0.00    0.0000955    0.0010003   -0.0000000
 C   -7.2708870   -1.2324868    0.0000000  0.00   -0.0005493   -0.0002146   -0.0000000
 C   -5.8369094   -1.2224114    0.0000000  0.00   -0.0008137   -0.0002412   -0.0000000
 C   -7.9177617   -2.4670605    0.0000000  0.00   -0.0007084    0.0002424   -0.0000000
 C   -5.0719836   -2.4023853    0.0000000  0.00    0.0005871   -0.0006239   -0.0000000
 C   -3.5601436   -4.7565380    0.0000000  0.00    0.0003253   -0.0004268   -0.0000000
 C   -2.8337387   -5.9618023    0.0000000  0.00   -0.0001884   -0.0000056   -0.0000000
 C   -3.5146241   -7.2107265    0.0000000  0.00    0.0000509   -0.0008133   -0.0000000
 C   -3.6357598   -2.3549774    0.0000000  0.00   -0.0007955   -0.0021270   -0.0000000
 C   -2.8570016   -3.5070386    0.0000000  0.00    0.0000492    0.0001801   -0.0000000
 C   -2.9726860   -1.1274308    0.0000000  0.00    0.0010731    0.0012458   -0.0000000
 C   -1.4121038   -5.8744698    0.0000000  0.00    0.0002896    0.0008500   -0.0000000
 C   -0.7086756   -7.0943214    0.0000000  0.00   -0.0006759    0.0001168   -0.0000000
 C   -2.7554852   -8.3897577    0.0000000  0.00   -0.0003062    0.0001605   -0.0000000
 C   -1.4040513   -8.3279201    0.0000000  0.00   -0.0004177   -0.0002519   -0.0000000
 C   -1.4222231   -3.3459384    0.0000000  0.00    0.0009369   -0.0001807   -0.0000000
 C   -0.7058921   -4.5975556    0.0000000  0.00   -0.0016152   -0.0000053   -0.0000000
 C   -1.5813292   -0.8095809    0.0000000  0.00    0.0001211   -0.0001502   -0.0000000
 C   -0.7343429   -2.0112208    0.0000000  0.00    0.0001628   -0.0003476   -0.0000000
 H   -8.8541380   -7.3722700    0.0000000  0.00   -0.0003009    0.0008435   -0.0000000
 H   -7.5603734   -9.4835075    0.0000000  0.00   -0.0002857    0.0002020   -0.0000000
 H   -5.1286312   -9.4397393    0.0000000  0.00   -0.0010843   -0.0011286   -0.0000000
 H   -8.9151623   -4.9406436    0.0000000  0.00    0.0007827    0.0008097   -0.0000000
 H   -9.0015730   -2.5098075    0.0000000  0.00   -0.0001884   -0.0001584   -0.0000000
 H   -3.2344962   -9.3567738    0.0000000  0.00   -0.0009870   -0.0014018   -0.0000000
 H   -0.8640268   -9.2584277    0.0000000  0.00   -0.0006756   -0.0006337   -0.0000000
