148
 Energy =   -4513.4371329860
 C    7.1238174   -6.0972475    0.0000000  0.00   -0.0000817   -0.0010787   -0.0000000
 C    5.6907131   -6.0571296    0.0000000  0.00    0.0003562    0.0014600   -0.0000000
 C    7.7854691   -7.3450645    0.0000000  0.00    0.0008795    0.0011129   -0.0000000
 C    4.9664636   -7.2687796    0.0000000  0.00    0.0000845   -0.0000184   -0.0000000
 C    7.0624847   -8.5140306    0.0000000  0.00   -0.0006519    0.0007852   -0.0000000
 C    5.6677638   -8.4785148    0.0000000  0.00    0.0003604    0.0000332   -0.0000000
 C    7.2030267   -3.6676971    0.0000000  0.00   -0.0006758    0.0000458   -0.0000000
 C    5.7605436   -3.6312298    0.0000000  0.00    0.0005298    0.0004574   -0.0000000
 C    7.8460993   -4.8979067    0.0000000  0.00   -0.0002681   -0.0004126   -0.0000000
 C    5.0049079   -4.8094910    0.0000000  0.00   -0.0007897   -0.0010739   -0.0000000
 C    7.2935953   -1.2318459    0.0000000  0.00   -0.0005812   -0.0013834   -0.0000000
 C    5.8526132   -1.2210907    0.0000000  0.00    0.0008539   -0.0000271   -0.0000000
 C    7.9373368   -2.4616012    0.0000000  0.00   -0.0008637    0.0007444   -0.0000000
 C    5.0871836   -2.3945858    0.0000000  0.00   -0.0002584   -0.0019490   -0.0000000
 C    7.9785093    0.0000000    0.0000000  0.00    0.0004218   -0.0000000   -0.0000000
 C    5.1748981    0.0000000    0.0000000  0.00   -0.0021196   -0.0000000   -0.0000000
 C    3.5653845   -4.7405509    0.0000000  0.00    0.0002810   -0.0002151   -0.0000000
 C    2.8382559   -5.9450657    0.0000000  0.00    0.0015253   -0.0009597   -0.0000000
 C    3.5188822   -7.1971473    0.0000000  0.00    0.0004760    0.0016206   -0.0000000
 C    3.6479209   -2.3467754    0.0000000  0.00    0.0008725    0.0001667   -0.0000000
 C    2.8684363   -3.5019443    0.0000000  0.00    0.0009615   -0.0008460   -0.0000000
 C    3.7847102    0.0000000    0.0000000  0.00    0.0016013   -0.0000000   -0.0000000
 C    2.9862192   -1.1241417    0.0000000  0.00   -0.0004854   -0.0001733   -0.0000000
 C    1.4172558   -5.8546051    0.0000000  0.00    0.0009209    0.0004997   -0.0000000
 C    0.7139753   -7.0777462    0.0000000  0.00   -0.0001743   -0.0015116   -0.0000000
 C    2.7639147   -8.3645874    0.0000000  0.00   -0.0006504    0.0004079   -0.0000000
 C    1.4037883   -8.2987643    0.0000000  0.00    0.0001478   -0.0020828   -0.0000000
 C    1.4232372   -3.3385601    0.0000000  0.00    0.0000695   -0.0006555   -0.0000000
 C    0.7135591   -4.5771637    0.0000000  0.00    0.0000419    0.0008772   -0.0000000
 C    1.5825210   -0.7991130    0.0000000  0.00    0.0014594    0.0001171   -0.0000000
 C    0.7364003   -1.9959354    0.0000000  0.00   -0.0002518    0.0004924   -0.0000000
 H    8.8693598   -7.3633144    0.0000000  0.00    0.0007485    0.0011774   -0.0000000
 H    7.5713276   -9.4710017    0.0000000  0.00   -0.0000841    0.0002399   -0.0000000
 H    5.1380495   -9.4200293    0.0000000  0.00    0.0008999    0.0010673   -0.0000000
 H    8.9303699   -4.9326883    0.0000000  0.00   -0.0001949   -0.0008670   -0.0000000
 H    9.0211179   -2.5065882    0.0000000  0.00   -0.0004287   -0.0007827   -0.0000000
 H    9.0631869    0.0000000    0.0000000  0.00   -0.0003246   -0.0000000   -0.0000000
 H    3.2379908   -9.3344724    0.0000000  0.00   -0.0007085   -0.0003359   -0.0000000
 H    0.8663577   -9.2311968    0.0000000  0.00   -0.0032113   -0.0012954   -0.0000000
 C   -7.1238174    6.0972475    0.0000000  0.00    0.0000817    0.0010787   -0.0000000
 C   -5.6907131    6.0571296    0.0000000  0.00   -0.0003562   -0.0014600   -0.0000000
 C   -7.7854691    7.3450645    0.0000000  0.00   -0.0008795   -0.0011129   -0.0000000
 C   -4.9664636    7.2687796    0.0000000  0.00   -0.0000845    0.0000184   -0.0000000
 C   -7.0624847    8.5140306    0.0000000  0.00    0.0006519   -0.0007852   -0.0000000
 C   -5.6677638    8.4785148    0.0000000  0.00   -0.0003604   -0.0000332   -0.0000000
 C   -7.2030267    3.6676971    0.0000000  0.00    0.0006758   -0.0000458   -0.0000000
 C   -5.7605436    3.6312298    0.0000000  0.00   -0.0005298   -0.0004574   -0.0000000
 C   -7.8460993    4.8979067    0.0000000  0.00    0.0002681    0.0004126   -0.0000000
 C   -5.0049079    4.8094910    0.0000000  0.00    0.0007897    0.0010739   -0.0000000
 C   -7.2935953    1.2318459    0.0000000  0.00    0.0005812    0.0013834   -0.0000000
 C   -5.8526132    1.2210907    0.0000000  0.00   -0.0008539    0.0000271   -0.0000000
 C   -7.9373368    2.4616012    0.0000000  0.00    0.0008637   -0.0007444   -0.0000000
 C   -5.0871836    2.3945858    0.0000000  0.00    0.0002584    0.0019490   -0.0000000
 C   -7.9785093    0.0000000    0.0000000  0.00   -0.0004218   -0.0000000   -0.0000000
 C   -5.1748981    0.0000000    0.0000000  0.00    0.0021196   -0.0000000   -0.0000000
 C   -3.5653845    4.7405509    0.0000000  0.00   -0.0002810    0.0002151   -0.0000000
 C   -2.8382559    5.9450657    0.0000000  0.00   -0.0015253    0.0009597   -0.0000000
 C   -3.5188822    7.1971473    0.0000000  0.00   -0.0004760   -0.0016206   -0.0000000
 C   -3.6479209    2.3467754    0.0000000  0.00   -0.0008725   -0.0001667   -0.0000000
 C   -2.8684363    3.5019443    0.0000000  0.00   -0.0009615    0.0008460   -0.0000000
 C   -3.7847102    0.0000000    0.0000000  0.00   -0.0016013   -0.0000000   -0.0000000
 C   -2.9862192    1.1241417    0.0000000  0.00    0.0004854    0.0001733   -0.0000000
 C   -1.4172558    5.8546051    0.0000000  0.00   -0.0009209   -0.0004997   -0.0000000
 C   -0.7139753    7.0777462    0.0000000  0.00    0.0001743    0.0015116   -0.0000000
 C   -2.7639147    8.3645874    0.0000000  0.00    0.0006504   -0.0004079   -0.0000000
 C   -1.4037883    8.2987643    0.0000000  0.00   -0.0001478    0.0020828   -0.0000000
 C   -1.4232372    3.3385601    0.0000000  0.00   -0.0000695    0.0006555   -0.0000000
 C   -0.7135591    4.5771637    0.0000000  0.00   -0.0000419   -0.0008772   -0.0000000
 C   -1.5825210    0.7991130    0.0000000  0.00   -0.0014594   -0.0001171   -0.0000000
 C   -0.7364003    1.9959354    0.0000000  0.00    0.0002518   -0.0004924   -0.0000000
 H   -8.8693598    7.3633144    0.0000000  0.00   -0.0007485   -0.0011774   -0.0000000
 H   -7.5713276    9.4710017    0.0000000  0.00    0.0000841   -0.0002399   -0.0000000
 H   -5.1380495    9.4200293    0.0000000  0.00   -0.0008999   -0.0010673   -0.0000000
 H   -8.9303699    4.9326883    0.0000000  0.00    0.0001949    0.0008670   -0.0000000
 H   -9.0211179    2.5065882    0.0000000  0.00    0.0004287    0.0007827   -0.0000000
 H   -9.0631869    0.0000000    0.0000000  0.00    0.0003246   -0.0000000   -0.0000000
 H   -3.2379908    9.3344724    0.0000000  0.00    0.0007085    0.0003359   -0.0000000
 H   -0.8663577    9.2311968    0.0000000  0.00    0.0032113    0.0012954   -0.0000000
 C    7.1238174    6.0972475    0.0000000  0.00   -0.0000817    0.0010787   -0.0000000
 C    5.6907131    6.0571296    0.0000000  0.00    0.0003562   -0.0014600   -0.0000000
 C    7.7854691    7.3450645    0.0000000  0.00    0.0008795   -0.0011129   -0.0000000
 C    4.9664636    7.2687796    0.0000000  0.00    0.0000845    0.0000184   -0.0000000
 C    7.0624847    8.5140306    0.0000000  0.00   -0.0006519   -0.0007852   -0.0000000
 C    5.6677638    8.4785148    0.0000000  0.00    0.0003604   -0.0000332   -0.0000000
 C    7.2030267    3.6676971    0.0000000  0.00   -0.0006758   -0.0000458   -0.0000000
 C    5.7605436    3.6312298    0.0000000  0.00    0.0005298   -0.0004574   -0.0000000
 C    7.8460993    4.8979067    0.0000000  0.00   -0.0002681    0.0004126   -0.0000000
 C    5.0049079    4.8094910    0.0000000  0.00   -0.0007897    0.0010739   -0.0000000
 C    7.2935953    1.2318459    0.0000000  0.00   -0.0005812    0.0013834   -0.0000000
 C    5.8526132    1.2210907    0.0000000  0.00    0.0008539    0.0000271   -0.0000000
 C    7.9373368    2.4616012    0.0000000  0.00   -0.0008637   -0.0007444   -0.0000000
 C    5.0871836    2.3945858    0.0000000  0.00   -0.0002584    0.0019490   -0.0000000
 C    3.5653845    4.7405509    0.0000000  0.00    0.0002810    0.0002151   -0.0000000
 C    2.8382559    5.9450657    0.0000000  0.00    0.0015253    0.0009597   -0.0000000
 C    3.5188822    7.1971473    0.0000000  0.00    0.0004760   -0.0016206   -0.0000000
 C    3.6479209    2.3467754    0.0000000  0.00    0.0008725   -0.0001667   -0.0000000
 C    2.8684363    3.5019443    0.0000000  0.00    0.0009615    0.0008460   -0.0000000
 C    2.9862192    1.1241417    0.0000000  0.00   -0.0004854    0.0001733   -0.0000000
 C    1.4172558    5.8546051    0.0000000  0.00    0.0009209   -0.0004997   -0.0000000
 C    0.7139753    7.0777462    0.0000000  0.00   -0.0001743    0.0015116   -0.0000000
 C    2.7639147    8.3645874    0.0000000  0.00   -0.0006504   -0.0004079   -0.0000000
 C    1.4037883    8.2987643    0.0000000  0.00    0.0001478    0.0020828   -0.0000000
 C    1.4232372    3.3385601    0.0000000  0.00    0.0000695    0.0006555   -0.0000000
 C    0.7135591    4.5771637    0.0000000  0.00    0.0000419   -0.0008772   -0.0000000
 C    1.5825210    0.7991130    0.0000000  0.00    0.0014594   -0.0001171   -0.0000000
 C    0.7364003    1.9959354    0.0000000  0.00   -0.0002518   -0.0004924   -0.0000000
 H    8.8693598    7.3633144    0.0000000  0.00    0.0007485   -0.0011774   -0.0000000
 H    7.5713276    9.4710017    0.0000000  0.00   -0.0000841   -0.0002399   -0.0000000
 H    5.1380495    9.4200293    0.0000000  0.00    0.0008999   -0.0010673   -0.0000000
 H    8.9303699    4.9326883    0.0000000  0.00   -0.0001949    0.0008670   -0.0000000
 H    9.0211179    2.5065882    0.0000000  0.00   -0.0004287    0.0007827   -0.0000000
 H    3.2379908    9.3344724    0.0000000  0.00   -0.0007085    0.0003359   -0.0000000
 H    0.8663577    9.2311968    0.0000000  0.00   -0.0032113    0.0012954   -0.0000000
 C   -7.1238174   -6.0972475    0.0000000  0.00    0.0000817   -0.0010787   -0.0000000
 C   -5.6907131   -6.0571296    0.0000000  0.00   -0.0003562    0.0014600   -0.0000000
 C   -7.7854691   -7.3450645    0.0000000  0.00   -0.0008795    0.0011129   -0.0000000
 C   -4.9664636   -7.2687796    0.0000000  0.00   -0.0000845   -0.0000184   -0.0000000
 C   -7.0624847   -8.5140306    0.0000000  0.00    0.0006519    0.0007852   -0.0000000
 C   -5.6677638   -8.4785148    0.0000000  0.00   -0.0003604    0.0000332   -0.0000000
 C   -7.2030267   -3.6676971    0.0000000  0.00    0.0006758    0.0000458   -0.0000000
 C   -5.7605436   -3.6312298    0.0000000  0.00   -0.0005298    0.0004574   -0.0000000
 C   -7.8460993   -4.8979067    0.0000000  0.00    0.0002681   -0.0004126   -0.0000000
 C   -5.0049079   -4.8094910    0.0000000  0.00    0.0007897   -0.0010739   -0.0000000
 C   -7.2935953   -1.2318459    0.0000000  0.00    0.0005812   -0.0013834   -0.0000000
 C   -5.8526132   -1.2210907    0.0000000  0.00   -0.0008539   -0.0000271   -0.0000000
 C   -7.9373368   -2.4616012    0.0000000  0.00    0.0008637    0.0007444   -0.0000000
 C   -5.0871836   -2.3945858    0.0000000  0.00    0.0002584   -0.0019490   -0.0000000
 C   -3.5653845   -4.7405509    0.0000000  0.00   -0.0002810   -0.0002151   -0.0000000
 C   -2.8382559   -5.9450657    0.0000000  0.00   -0.0015253   -0.0009597   -0.0000000
 C   -3.5188822   -7.1971473    0.0000000  0.00   -0.0004760    0.0016206   -0.0000000
 C   -3.6479209   -2.3467754    0.0000000  0.00   -0.0008725    0.0001667   -0.0000000
 C   -2.8684363   -3.5019443    0.0000000  0.00   -0.0009615   -0.0008460   -0.0000000
 C   -2.9862192   -1.1241417    0.0000000  0.00    0.0004854   -0.0001733   -0.0000000
 C   -1.4172558   -5.8546051    0.0000000  0.00   -0.0009209    0.0004997   -0.0000000
 C   -0.7139753   -7.0777462    0.0000000  0.00    0.0001743   -0.0015116   -0.0000000
 C   -2.7639147   -8.3645874    0.0000000  0.00    0.0006504    0.0004079   -0.0000000
 C   -1.4037883   -8.2987643    0.0000000  0.00   -0.0001478   -0.0020828   -0.0000000
 C   -1.4232372   -3.3385601    0.0000000  0.00   -0.0000695   -0.0006555   -0.0000000
 C   -0.7135591   -4.5771637    0.0000000  0.00   -0.0000419    0.0008772   -0.0000000
 C   -1.5825210   -0.7991130    0.0000000  0.00   -0.0014594    0.0001171   -0.0000000
 C   -0.7364003   -1.9959354    0.0000000  0.00    0.0002518    0.0004924   -0.0000000
 H   -8.8693598   -7.3633144    0.0000000  0.00   -0.0007485    0.0011774   -0.0000000
 H   -7.5713276   -9.4710017    0.0000000  0.00    0.0000841    0.0002399   -0.0000000
 H   -5.1380495   -9.4200293    0.0000000  0.00   -0.0008999    0.0010673   -0.0000000
 H   -8.9303699   -4.9326883    0.0000000  0.00    0.0001949   -0.0008670   -0.0000000
 H   -9.0211179   -2.5065882    0.0000000  0.00    0.0004287   -0.0007827   -0.0000000
 H   -3.2379908   -9.3344724    0.0000000  0.00    0.0007085   -0.0003359   -0.0000000
 H   -0.8663577   -9.2311968    0.0000000  0.00    0.0032113   -0.0012954   -0.0000000
