148
 Energy =   -4513.4134401120
 C    7.1108782   -6.1002448    0.0000000  0.00    0.0005508   -0.0006254   -0.0000000
 C    5.6776354   -6.0605477    0.0000000  0.00   -0.0015960    0.0016265   -0.0000000
 C    7.7735517   -7.3441539    0.0000000  0.00    0.0003070    0.0001171   -0.0000000
 C    4.9553132   -7.2706922    0.0000000  0.00    0.0002202   -0.0002378   -0.0000000
 C    7.0516845   -8.5185153    0.0000000  0.00   -0.0000812   -0.0015508   -0.0000000
 C    5.6615150   -8.4855181    0.0000000  0.00   -0.0020360   -0.0002927   -0.0000000
 C    7.1911492   -3.6653956    0.0000000  0.00   -0.0000451   -0.0005270   -0.0000000
 C    5.7476521   -3.6288610    0.0000000  0.00   -0.0021288    0.0009863   -0.0000000
 C    7.8338860   -4.8998354    0.0000000  0.00    0.0006115   -0.0015847   -0.0000000
 C    4.9898380   -4.8116331    0.0000000  0.00   -0.0001558    0.0007059   -0.0000000
 C    7.2830950   -1.2285061    0.0000000  0.00   -0.0004142   -0.0008981   -0.0000000
 C    5.8483449   -1.2198041    0.0000000  0.00   -0.0011918   -0.0006853   -0.0000000
 C    7.9266631   -2.4662907    0.0000000  0.00   -0.0002176   -0.0004900   -0.0000000
 C    5.0772229   -2.3963895    0.0000000  0.00   -0.0003198    0.0012736   -0.0000000
 C    7.9692380    0.0000000    0.0000000  0.00   -0.0008362   -0.0000000   -0.0000000
 C    5.1692854    0.0000000    0.0000000  0.00   -0.0039337   -0.0000000   -0.0000000
 C    3.5579109   -4.7438784    0.0000000  0.00   -0.0015888    0.0008060   -0.0000000
 C    2.8324997   -5.9559374    0.0000000  0.00    0.0012643    0.0008800   -0.0000000
 C    3.5130651   -7.2017887    0.0000000  0.00   -0.0000986    0.0004401   -0.0000000
 C    3.6378778   -2.3455489    0.0000000  0.00   -0.0006930   -0.0024214   -0.0000000
 C    2.8583706   -3.5016379    0.0000000  0.00    0.0001814    0.0012254   -0.0000000
 C    3.7824730    0.0000000    0.0000000  0.00    0.0021828   -0.0000000   -0.0000000
 C    2.9774920   -1.1205054    0.0000000  0.00   -0.0013906    0.0012357   -0.0000000
 C    1.4118652   -5.8684707    0.0000000  0.00   -0.0001416    0.0003361   -0.0000000
 C    0.7095558   -7.0895540    0.0000000  0.00   -0.0001039    0.0002504   -0.0000000
 C    2.7573703   -8.3818862    0.0000000  0.00    0.0010710    0.0012007   -0.0000000
 C    1.4050681   -8.3207905    0.0000000  0.00    0.0000246   -0.0003342   -0.0000000
 C    1.4161492   -3.3341234    0.0000000  0.00   -0.0005534   -0.0002927   -0.0000000
 C    0.7042059   -4.5914241    0.0000000  0.00   -0.0017008    0.0006897   -0.0000000
 C    1.5804495   -0.7790474    0.0000000  0.00    0.0007132   -0.0016103   -0.0000000
 C    0.7269367   -2.0111617    0.0000000  0.00   -0.0003460   -0.0003321   -0.0000000
 H    8.8574906   -7.3602765    0.0000000  0.00    0.0004141   -0.0006862   -0.0000000
 H    7.5644732   -9.4733446    0.0000000  0.00   -0.0022870   -0.0002283   -0.0000000
 H    5.1327973   -9.4271859    0.0000000  0.00   -0.0026271    0.0006735   -0.0000000
 H    8.9180649   -4.9351228    0.0000000  0.00    0.0006899   -0.0010455   -0.0000000
 H    9.0103406   -2.5127883    0.0000000  0.00    0.0010289   -0.0020362   -0.0000000
 H    9.0539746    0.0000000    0.0000000  0.00   -0.0012409   -0.0000000   -0.0000000
 H    3.2376134   -9.3484431    0.0000000  0.00   -0.0008815   -0.0004519   -0.0000000
 H    0.8662869   -9.2523593    0.0000000  0.00   -0.0010864    0.0008900   -0.0000000
 C   -7.1108782    6.1002448    0.0000000  0.00   -0.0005508    0.0006254   -0.0000000
 C   -5.6776354    6.0605477    0.0000000  0.00    0.0015960   -0.0016265   -0.0000000
 C   -7.7735517    7.3441539    0.0000000  0.00   -0.0003070   -0.0001171   -0.0000000
 C   -4.9553132    7.2706922    0.0000000  0.00   -0.0002202    0.0002378   -0.0000000
 C   -7.0516845    8.5185153    0.0000000  0.00    0.0000812    0.0015508   -0.0000000
 C   -5.6615150    8.4855181    0.0000000  0.00    0.0020360    0.0002927   -0.0000000
 C   -7.1911492    3.6653956    0.0000000  0.00    0.0000451    0.0005270   -0.0000000
 C   -5.7476521    3.6288610    0.0000000  0.00    0.0021288   -0.0009863   -0.0000000
 C   -7.8338860    4.8998354    0.0000000  0.00   -0.0006115    0.0015847   -0.0000000
 C   -4.9898380    4.8116331    0.0000000  0.00    0.0001558   -0.0007059   -0.0000000
 C   -7.2830950    1.2285061    0.0000000  0.00    0.0004142    0.0008981   -0.0000000
 C   -5.8483449    1.2198041    0.0000000  0.00    0.0011918    0.0006853   -0.0000000
 C   -7.9266631    2.4662907    0.0000000  0.00    0.0002176    0.0004900   -0.0000000
 C   -5.0772229    2.3963895    0.0000000  0.00    0.0003198   -0.0012736   -0.0000000
 C   -7.9692380    0.0000000    0.0000000  0.00    0.0008362   -0.0000000   -0.0000000
 C   -5.1692854    0.0000000    0.0000000  0.00    0.0039337   -0.0000000   -0.0000000
 C   -3.5579109    4.7438784    0.0000000  0.00    0.0015888   -0.0008060   -0.0000000
 C   -2.8324997    5.9559374    0.0000000  0.00   -0.0012643   -0.0008800   -0.0000000
 C   -3.5130651    7.2017887    0.0000000  0.00    0.0000986   -0.0004401   -0.0000000
 C   -3.6378778    2.3455489    0.0000000  0.00    0.0006930    0.0024214   -0.0000000
 C   -2.8583706    3.5016379    0.0000000  0.00   -0.0001814   -0.0012254   -0.0000000
 C   -3.7824730    0.0000000    0.0000000  0.00   -0.0021828   -0.0000000   -0.0000000
 C   -2.9774920    1.1205054    0.0000000  0.00    0.0013906   -0.0012357   -0.0000000
 C   -1.4118652    5.8684707    0.0000000  0.00    0.0001416   -0.0003361   -0.0000000
 C   -0.7095558    7.0895540    0.0000000  0.00    0.0001039   -0.0002504   -0.0000000
 C   -2.7573703    8.3818862    0.0000000  0.00   -0.0010710   -0.0012007   -0.0000000
 C   -1.4050681    8.3207905    0.0000000  0.00   -0.0000246    0.0003342   -0.0000000
 C   -1.4161492    3.3341234    0.0000000  0.00    0.0005534    0.0002927   -0.0000000
 C   -0.7042059    4.5914241    0.0000000  0.00    0.0017008   -0.0006897   -0.0000000
 C   -1.5804495    0.7790474    0.0000000  0.00   -0.0007132    0.0016103   -0.0000000
 C   -0.7269367    2.0111617    0.0000000  0.00    0.0003460    0.0003321   -0.0000000
 H   -8.8574906    7.3602765    0.0000000  0.00   -0.0004141    0.0006862   -0.0000000
 H   -7.5644732    9.4733446    0.0000000  0.00    0.0022870    0.0002283   -0.0000000
 H   -5.1327973    9.4271859    0.0000000  0.00    0.0026271   -0.0006735   -0.0000000
 H   -8.9180649    4.9351228    0.0000000  0.00   -0.0006899    0.0010455   -0.0000000
 H   -9.0103406    2.5127883    0.0000000  0.00   -0.0010289    0.0020362   -0.0000000
 H   -9.0539746    0.0000000    0.0000000  0.00    0.0012409   -0.0000000   -0.0000000
 H   -3.2376134    9.3484431    0.0000000  0.00    0.0008815    0.0004519   -0.0000000
 H   -0.8662869    9.2523593    0.0000000  0.00    0.0010864   -0.0008900   -0.0000000
 C    7.1108782    6.1002448    0.0000000  0.00    0.0005508    0.0006254   -0.0000000
 C    5.6776354    6.0605477    0.0000000  0.00   -0.0015960   -0.0016265   -0.0000000
 C    7.7735517    7.3441539    0.0000000  0.00    0.0003070   -0.0001171   -0.0000000
 C    4.9553132    7.2706922    0.0000000  0.00    0.0002202    0.0002378   -0.0000000
 C    7.0516845    8.5185153    0.0000000  0.00   -0.0000812    0.0015508   -0.0000000
 C    5.6615150    8.4855181    0.0000000  0.00   -0.0020360    0.0002927   -0.0000000
 C    7.1911492    3.6653956    0.0000000  0.00   -0.0000451    0.0005270   -0.0000000
 C    5.7476521    3.6288610    0.0000000  0.00   -0.0021288   -0.0009863   -0.0000000
 C    7.8338860    4.8998354    0.0000000  0.00    0.0006115    0.0015847   -0.0000000
 C    4.9898380    4.8116331    0.0000000  0.00   -0.0001558   -0.0007059   -0.0000000
 C    7.2830950    1.2285061    0.0000000  0.00   -0.0004142    0.0008981   -0.0000000
 C    5.8483449    1.2198041    0.0000000  0.00   -0.0011918    0.0006853   -0.0000000
 C    7.9266631    2.4662907    0.0000000  0.00   -0.0002176    0.0004900   -0.0000000
 C    5.0772229    2.3963895    0.0000000  0.00   -0.0003198   -0.0012736   -0.0000000
 C    3.5579109    4.7438784    0.0000000  0.00   -0.0015888   -0.0008060   -0.0000000
 C    2.8324997    5.9559374    0.0000000  0.00    0.0012643   -0.0008800   -0.0000000
 C    3.5130651    7.2017887    0.0000000  0.00   -0.0000986   -0.0004401   -0.0000000
 C    3.6378778    2.3455489    0.0000000  0.00   -0.0006930    0.0024214   -0.0000000
 C    2.8583706    3.5016379    0.0000000  0.00    0.0001814   -0.0012254   -0.0000000
 C    2.9774920    1.1205054    0.0000000  0.00   -0.0013906   -0.0012357   -0.0000000
 C    1.4118652    5.8684707    0.0000000  0.00   -0.0001416   -0.0003361   -0.0000000
 C    0.7095558    7.0895540    0.0000000  0.00   -0.0001039   -0.0002504   -0.0000000
 C    2.7573703    8.3818862    0.0000000  0.00    0.0010710   -0.0012007   -0.0000000
 C    1.4050681    8.3207905    0.0000000  0.00    0.0000246    0.0003342   -0.0000000
 C    1.4161492    3.3341234    0.0000000  0.00   -0.0005534    0.0002927   -0.0000000
 C    0.7042059    4.5914241    0.0000000  0.00   -0.0017008   -0.0006897   -0.0000000
 C    1.5804495    0.7790474    0.0000000  0.00    0.0007132    0.0016103   -0.0000000
 C    0.7269367    2.0111617    0.0000000  0.00   -0.0003460    0.0003321   -0.0000000
 H    8.8574906    7.3602765    0.0000000  0.00    0.0004141    0.0006862   -0.0000000
 H    7.5644732    9.4733446    0.0000000  0.00   -0.0022870    0.0002283   -0.0000000
 H    5.1327973    9.4271859    0.0000000  0.00   -0.0026271   -0.0006735   -0.0000000
 H    8.9180649    4.9351228    0.0000000  0.00    0.0006899    0.0010455   -0.0000000
 H    9.0103406    2.5127883    0.0000000  0.00    0.0010289    0.0020362   -0.0000000
 H    3.2376134    9.3484431    0.0000000  0.00   -0.0008815    0.0004519   -0.0000000
 H    0.8662869    9.2523593    0.0000000  0.00   -0.0010864   -0.0008900   -0.0000000
 C   -7.1108782   -6.1002448    0.0000000  0.00   -0.0005508   -0.0006254   -0.0000000
 C   -5.6776354   -6.0605477    0.0000000  0.00    0.0015960    0.0016265   -0.0000000
 C   -7.7735517   -7.3441539    0.0000000  0.00   -0.0003070    0.0001171   -0.0000000
 C   -4.9553132   -7.2706922    0.0000000  0.00   -0.0002202   -0.0002378   -0.0000000
 C   -7.0516845   -8.5185153    0.0000000  0.00    0.0000812   -0.0015508   -0.0000000
 C   -5.6615150   -8.4855181    0.0000000  0.00    0.0020360   -0.0002927   -0.0000000
 C   -7.1911492   -3.6653956    0.0000000  0.00    0.0000451   -0.0005270   -0.0000000
 C   -5.7476521   -3.6288610    0.0000000  0.00    0.0021288    0.0009863   -0.0000000
 C   -7.8338860   -4.8998354    0.0000000  0.00   -0.0006115   -0.0015847   -0.0000000
 C   -4.9898380   -4.8116331    0.0000000  0.00    0.0001558    0.0007059   -0.0000000
 C   -7.2830950   -1.2285061    0.0000000  0.00    0.0004142   -0.0008981   -0.0000000
 C   -5.8483449   -1.2198041    0.0000000  0.00    0.0011918   -0.0006853   -0.0000000
 C   -7.9266631   -2.4662907    0.0000000  0.00    0.0002176   -0.0004900   -0.0000000
 C   -5.0772229   -2.3963895    0.0000000  0.00    0.0003198    0.0012736   -0.0000000
 C   -3.5579109   -4.7438784    0.0000000  0.00    0.0015888    0.0008060   -0.0000000
 C   -2.8324997   -5.9559374    0.0000000  0.00   -0.0012643    0.0008800   -0.0000000
 C   -3.5130651   -7.2017887    0.0000000  0.00    0.0000986    0.0004401   -0.0000000
 C   -3.6378778   -2.3455489    0.0000000  0.00    0.0006930   -0.0024214   -0.0000000
 C   -2.8583706   -3.5016379    0.0000000  0.00   -0.0001814    0.0012254   -0.0000000
 C   -2.9774920   -1.1205054    0.0000000  0.00    0.0013906    0.0012357   -0.0000000
 C   -1.4118652   -5.8684707    0.0000000  0.00    0.0001416    0.0003361   -0.0000000
 C   -0.7095558   -7.0895540    0.0000000  0.00    0.0001039    0.0002504   -0.0000000
 C   -2.7573703   -8.3818862    0.0000000  0.00   -0.0010710    0.0012007   -0.0000000
 C   -1.4050681   -8.3207905    0.0000000  0.00   -0.0000246   -0.0003342   -0.0000000
 C   -1.4161492   -3.3341234    0.0000000  0.00    0.0005534   -0.0002927   -0.0000000
 C   -0.7042059   -4.5914241    0.0000000  0.00    0.0017008    0.0006897   -0.0000000
 C   -1.5804495   -0.7790474    0.0000000  0.00   -0.0007132   -0.0016103   -0.0000000
 C   -0.7269367   -2.0111617    0.0000000  0.00    0.0003460   -0.0003321   -0.0000000
 H   -8.8574906   -7.3602765    0.0000000  0.00   -0.0004141   -0.0006862   -0.0000000
 H   -7.5644732   -9.4733446    0.0000000  0.00    0.0022870   -0.0002283   -0.0000000
 H   -5.1327973   -9.4271859    0.0000000  0.00    0.0026271    0.0006735   -0.0000000
 H   -8.9180649   -4.9351228    0.0000000  0.00   -0.0006899   -0.0010455   -0.0000000
 H   -9.0103406   -2.5127883    0.0000000  0.00   -0.0010289   -0.0020362   -0.0000000
 H   -3.2376134   -9.3484431    0.0000000  0.00    0.0008815   -0.0004519   -0.0000000
 H   -0.8662869   -9.2523593    0.0000000  0.00    0.0010864    0.0008900   -0.0000000
