148
 Energy =   -4513.0660853690
 C    7.1019603   -6.0912621    0.0000000  0.00   -0.0004881   -0.0006191   -0.0000000
 C    5.6717297   -6.0523294    0.0000000  0.00   -0.0000858    0.0007657   -0.0000000
 C    7.7717482   -7.3340436    0.0000000  0.00    0.0008411    0.0005083   -0.0000000
 C    4.9513275   -7.2624400    0.0000000  0.00    0.0003662   -0.0000507   -0.0000000
 C    7.0529635   -8.5052652    0.0000000  0.00   -0.0004686    0.0001635   -0.0000000
 C    5.6608901   -8.4725396    0.0000000  0.00    0.0008374    0.0003847   -0.0000000
 C    7.1842171   -3.6645141    0.0000000  0.00   -0.0001053   -0.0002869   -0.0000000
 C    5.7455300   -3.6288494    0.0000000  0.00   -0.0000027    0.0002343   -0.0000000
 C    7.8283927   -4.8978604    0.0000000  0.00    0.0003615   -0.0000760   -0.0000000
 C    4.9880344   -4.8067775    0.0000000  0.00    0.0005382   -0.0012463   -0.0000000
 C    7.2875152   -1.2306941    0.0000000  0.00    0.0001420   -0.0001170   -0.0000000
 C    5.8483282   -1.2215619    0.0000000  0.00   -0.0008744   -0.0005057   -0.0000000
 C    7.9273210   -2.4677303    0.0000000  0.00    0.0005739   -0.0004689   -0.0000000
 C    5.0768907   -2.3939971    0.0000000  0.00   -0.0005120   -0.0001632   -0.0000000
 C    7.9748980    0.0000000    0.0000000  0.00    0.0002332   -0.0000000   -0.0000000
 C    5.1685516    0.0000000    0.0000000  0.00   -0.0021352   -0.0000000   -0.0000000
 C    3.5547817   -4.7425845    0.0000000  0.00    0.0004944   -0.0002526   -0.0000000
 C    2.8287584   -5.9476241    0.0000000  0.00   -0.0004073   -0.0003108   -0.0000000
 C    3.5088599   -7.2009490    0.0000000  0.00    0.0006774   -0.0011893   -0.0000000
 C    3.6399931   -2.3462987    0.0000000  0.00   -0.0001275   -0.0004719   -0.0000000
 C    2.8577302   -3.4983897    0.0000000  0.00    0.0002608    0.0001041   -0.0000000
 C    3.7805479    0.0000000    0.0000000  0.00   -0.0006354   -0.0000000   -0.0000000
 C    2.9797239   -1.1231105    0.0000000  0.00   -0.0013835    0.0000303   -0.0000000
 C    1.4110320   -5.8581643    0.0000000  0.00    0.0014204   -0.0011388   -0.0000000
 C    0.7098306   -7.0822809    0.0000000  0.00   -0.0012989   -0.0008399   -0.0000000
 C    2.7544342   -8.3746848    0.0000000  0.00    0.0013426   -0.0000099   -0.0000000
 C    1.3999085   -8.3104958    0.0000000  0.00    0.0002285   -0.0011503   -0.0000000
 C    1.4192713   -3.3355771    0.0000000  0.00    0.0011377   -0.0005457   -0.0000000
 C    0.7082156   -4.5819496    0.0000000  0.00   -0.0013745   -0.0002000   -0.0000000
 C    1.5819913   -0.7986137    0.0000000  0.00   -0.0002274   -0.0005503   -0.0000000
 C    0.7336366   -1.9997356    0.0000000  0.00   -0.0003945   -0.0004340   -0.0000000
 H    8.8629502   -7.3389635    0.0000000  0.00    0.0011085    0.0004162   -0.0000000
 H    7.5640882   -9.4669142    0.0000000  0.00    0.0000516   -0.0003325   -0.0000000
 H    5.1315530   -9.4234521    0.0000000  0.00   -0.0002616    0.0002706   -0.0000000
 H    8.9201523   -4.9384698    0.0000000  0.00    0.0008106    0.0007551   -0.0000000
 H    9.0129278   -2.5283298    0.0000000  0.00    0.0010138    0.0007912   -0.0000000
 H    9.0589237    0.0000000    0.0000000  0.00    0.0010390   -0.0000000   -0.0000000
 H    3.2203719   -9.3590281    0.0000000  0.00   -0.0002229   -0.0016925   -0.0000000
 H    0.8694896   -9.2617033    0.0000000  0.00   -0.0005379    0.0000669   -0.0000000
 C   -7.1019603    6.0912621    0.0000000  0.00    0.0004881    0.0006191   -0.0000000
 C   -5.6717297    6.0523294    0.0000000  0.00    0.0000858   -0.0007657   -0.0000000
 C   -7.7717482    7.3340436    0.0000000  0.00   -0.0008411   -0.0005083   -0.0000000
 C   -4.9513275    7.2624400    0.0000000  0.00   -0.0003662    0.0000507   -0.0000000
 C   -7.0529635    8.5052652    0.0000000  0.00    0.0004686   -0.0001635   -0.0000000
 C   -5.6608901    8.4725396    0.0000000  0.00   -0.0008374   -0.0003847   -0.0000000
 C   -7.1842171    3.6645141    0.0000000  0.00    0.0001053    0.0002869   -0.0000000
 C   -5.7455300    3.6288494    0.0000000  0.00    0.0000027   -0.0002343   -0.0000000
 C   -7.8283927    4.8978604    0.0000000  0.00   -0.0003615    0.0000760   -0.0000000
 C   -4.9880344    4.8067775    0.0000000  0.00   -0.0005382    0.0012463   -0.0000000
 C   -7.2875152    1.2306941    0.0000000  0.00   -0.0001420    0.0001170   -0.0000000
 C   -5.8483282    1.2215619    0.0000000  0.00    0.0008744    0.0005057   -0.0000000
 C   -7.9273210    2.4677303    0.0000000  0.00   -0.0005739    0.0004689   -0.0000000
 C   -5.0768907    2.3939971    0.0000000  0.00    0.0005120    0.0001632   -0.0000000
 C   -7.9748980    0.0000000    0.0000000  0.00   -0.0002332   -0.0000000   -0.0000000
 C   -5.1685516    0.0000000    0.0000000  0.00    0.0021352   -0.0000000   -0.0000000
 C   -3.5547817    4.7425845    0.0000000  0.00   -0.0004944    0.0002526   -0.0000000
 C   -2.8287584    5.9476241    0.0000000  0.00    0.0004073    0.0003108   -0.0000000
 C   -3.5088599    7.2009490    0.0000000  0.00   -0.0006774    0.0011893   -0.0000000
 C   -3.6399931    2.3462987    0.0000000  0.00    0.0001275    0.0004719   -0.0000000
 C   -2.8577302    3.4983897    0.0000000  0.00   -0.0002608   -0.0001041   -0.0000000
 C   -3.7805479    0.0000000    0.0000000  0.00    0.0006354   -0.0000000   -0.0000000
 C   -2.9797239    1.1231105    0.0000000  0.00    0.0013835   -0.0000303   -0.0000000
 C   -1.4110320    5.8581643    0.0000000  0.00   -0.0014204    0.0011388   -0.0000000
 C   -0.7098306    7.0822809    0.0000000  0.00    0.0012989    0.0008399   -0.0000000
 C   -2.7544342    8.3746848    0.0000000  0.00   -0.0013426    0.0000099   -0.0000000
 C   -1.3999085    8.3104958    0.0000000  0.00   -0.0002285    0.0011503   -0.0000000
 C   -1.4192713    3.3355771    0.0000000  0.00   -0.0011377    0.0005457   -0.0000000
 C   -0.7082156    4.5819496    0.0000000  0.00    0.0013745    0.0002000   -0.0000000
 C   -1.5819913    0.7986137    0.0000000  0.00    0.0002274    0.0005503   -0.0000000
 C   -0.7336366    1.9997356    0.0000000  0.00    0.0003945    0.0004340   -0.0000000
 H   -8.8629502    7.3389635    0.0000000  0.00   -0.0011085   -0.0004162   -0.0000000
 H   -7.5640882    9.4669142    0.0000000  0.00   -0.0000516    0.0003325   -0.0000000
 H   -5.1315530    9.4234521    0.0000000  0.00    0.0002616   -0.0002706   -0.0000000
 H   -8.9201523    4.9384698    0.0000000  0.00   -0.0008106   -0.0007551   -0.0000000
 H   -9.0129278    2.5283298    0.0000000  0.00   -0.0010138   -0.0007912   -0.0000000
 H   -9.0589237    0.0000000    0.0000000  0.00   -0.0010390   -0.0000000   -0.0000000
 H   -3.2203719    9.3590281    0.0000000  0.00    0.0002229    0.0016925   -0.0000000
 H   -0.8694896    9.2617033    0.0000000  0.00    0.0005379   -0.0000669   -0.0000000
 C    7.1019603    6.0912621    0.0000000  0.00   -0.0004881    0.0006191   -0.0000000
 C    5.6717297    6.0523294    0.0000000  0.00   -0.0000858   -0.0007657   -0.0000000
 C    7.7717482    7.3340436    0.0000000  0.00    0.0008411   -0.0005083   -0.0000000
 C    4.9513275    7.2624400    0.0000000  0.00    0.0003662    0.0000507   -0.0000000
 C    7.0529635    8.5052652    0.0000000  0.00   -0.0004686   -0.0001635   -0.0000000
 C    5.6608901    8.4725396    0.0000000  0.00    0.0008374   -0.0003847   -0.0000000
 C    7.1842171    3.6645141    0.0000000  0.00   -0.0001053    0.0002869   -0.0000000
 C    5.7455300    3.6288494    0.0000000  0.00   -0.0000027   -0.0002343   -0.0000000
 C    7.8283927    4.8978604    0.0000000  0.00    0.0003615    0.0000760   -0.0000000
 C    4.9880344    4.8067775    0.0000000  0.00    0.0005382    0.0012463   -0.0000000
 C    7.2875152    1.2306941    0.0000000  0.00    0.0001420    0.0001170   -0.0000000
 C    5.8483282    1.2215619    0.0000000  0.00   -0.0008744    0.0005057   -0.0000000
 C    7.9273210    2.4677303    0.0000000  0.00    0.0005739    0.0004689   -0.0000000
 C    5.0768907    2.3939971    0.0000000  0.00   -0.0005120    0.0001632   -0.0000000
 C    3.5547817    4.7425845    0.0000000  0.00    0.0004944    0.0002526   -0.0000000
 C    2.8287584    5.9476241    0.0000000  0.00   -0.0004073    0.0003108   -0.0000000
 C    3.5088599    7.2009490    0.0000000  0.00    0.0006774    0.0011893   -0.0000000
 C    3.6399931    2.3462987    0.0000000  0.00   -0.0001275    0.0004719   -0.0000000
 C    2.8577302    3.4983897    0.0000000  0.00    0.0002608   -0.0001041   -0.0000000
 C    2.9797239    1.1231105    0.0000000  0.00   -0.0013835   -0.0000303   -0.0000000
 C    1.4110320    5.8581643    0.0000000  0.00    0.0014204    0.0011388   -0.0000000
 C    0.7098306    7.0822809    0.0000000  0.00   -0.0012989    0.0008399   -0.0000000
 C    2.7544342    8.3746848    0.0000000  0.00    0.0013426    0.0000099   -0.0000000
 C    1.3999085    8.3104958    0.0000000  0.00    0.0002285    0.0011503   -0.0000000
 C    1.4192713    3.3355771    0.0000000  0.00    0.0011377    0.0005457   -0.0000000
 C    0.7082156    4.5819496    0.0000000  0.00   -0.0013745    0.0002000   -0.0000000
 C    1.5819913    0.7986137    0.0000000  0.00   -0.0002274    0.0005503   -0.0000000
 C    0.7336366    1.9997356    0.0000000  0.00   -0.0003945    0.0004340   -0.0000000
 H    8.8629502    7.3389635    0.0000000  0.00    0.0011085   -0.0004162   -0.0000000
 H    7.5640882    9.4669142    0.0000000  0.00    0.0000516    0.0003325   -0.0000000
 H    5.1315530    9.4234521    0.0000000  0.00   -0.0002616   -0.0002706   -0.0000000
 H    8.9201523    4.9384698    0.0000000  0.00    0.0008106   -0.0007551   -0.0000000
 H    9.0129278    2.5283298    0.0000000  0.00    0.0010138   -0.0007912   -0.0000000
 H    3.2203719    9.3590281    0.0000000  0.00   -0.0002229    0.0016925   -0.0000000
 H    0.8694896    9.2617033    0.0000000  0.00   -0.0005379   -0.0000669   -0.0000000
 C   -7.1019603   -6.0912621    0.0000000  0.00    0.0004881   -0.0006191   -0.0000000
 C   -5.6717297   -6.0523294    0.0000000  0.00    0.0000858    0.0007657   -0.0000000
 C   -7.7717482   -7.3340436    0.0000000  0.00   -0.0008411    0.0005083   -0.0000000
 C   -4.9513275   -7.2624400    0.0000000  0.00   -0.0003662   -0.0000507   -0.0000000
 C   -7.0529635   -8.5052652    0.0000000  0.00    0.0004686    0.0001635   -0.0000000
 C   -5.6608901   -8.4725396    0.0000000  0.00   -0.0008374    0.0003847   -0.0000000
 C   -7.1842171   -3.6645141    0.0000000  0.00    0.0001053   -0.0002869   -0.0000000
 C   -5.7455300   -3.6288494    0.0000000  0.00    0.0000027    0.0002343   -0.0000000
 C   -7.8283927   -4.8978604    0.0000000  0.00   -0.0003615   -0.0000760   -0.0000000
 C   -4.9880344   -4.8067775    0.0000000  0.00   -0.0005382   -0.0012463   -0.0000000
 C   -7.2875152   -1.2306941    0.0000000  0.00   -0.0001420   -0.0001170   -0.0000000
 C   -5.8483282   -1.2215619    0.0000000  0.00    0.0008744   -0.0005057   -0.0000000
 C   -7.9273210   -2.4677303    0.0000000  0.00   -0.0005739   -0.0004689   -0.0000000
 C   -5.0768907   -2.3939971    0.0000000  0.00    0.0005120   -0.0001632   -0.0000000
 C   -3.5547817   -4.7425845    0.0000000  0.00   -0.0004944   -0.0002526   -0.0000000
 C   -2.8287584   -5.9476241    0.0000000  0.00    0.0004073   -0.0003108   -0.0000000
 C   -3.5088599   -7.2009490    0.0000000  0.00   -0.0006774   -0.0011893   -0.0000000
 C   -3.6399931   -2.3462987    0.0000000  0.00    0.0001275   -0.0004719   -0.0000000
 C   -2.8577302   -3.4983897    0.0000000  0.00   -0.0002608    0.0001041   -0.0000000
 C   -2.9797239   -1.1231105    0.0000000  0.00    0.0013835    0.0000303   -0.0000000
 C   -1.4110320   -5.8581643    0.0000000  0.00   -0.0014204   -0.0011388   -0.0000000
 C   -0.7098306   -7.0822809    0.0000000  0.00    0.0012989   -0.0008399   -0.0000000
 C   -2.7544342   -8.3746848    0.0000000  0.00   -0.0013426   -0.0000099   -0.0000000
 C   -1.3999085   -8.3104958    0.0000000  0.00   -0.0002285   -0.0011503   -0.0000000
 C   -1.4192713   -3.3355771    0.0000000  0.00   -0.0011377   -0.0005457   -0.0000000
 C   -0.7082156   -4.5819496    0.0000000  0.00    0.0013745   -0.0002000   -0.0000000
 C   -1.5819913   -0.7986137    0.0000000  0.00    0.0002274   -0.0005503   -0.0000000
 C   -0.7336366   -1.9997356    0.0000000  0.00    0.0003945   -0.0004340   -0.0000000
 H   -8.8629502   -7.3389635    0.0000000  0.00   -0.0011085    0.0004162   -0.0000000
 H   -7.5640882   -9.4669142    0.0000000  0.00   -0.0000516   -0.0003325   -0.0000000
 H   -5.1315530   -9.4234521    0.0000000  0.00    0.0002616    0.0002706   -0.0000000
 H   -8.9201523   -4.9384698    0.0000000  0.00   -0.0008106    0.0007551   -0.0000000
 H   -9.0129278   -2.5283298    0.0000000  0.00   -0.0010138    0.0007912   -0.0000000
 H   -3.2203719   -9.3590281    0.0000000  0.00    0.0002229   -0.0016925   -0.0000000
 H   -0.8694896   -9.2617033    0.0000000  0.00    0.0005379    0.0000669   -0.0000000
