148
 Energy =   -4513.4039510260
 C    7.1265252   -6.1031492    0.0000000  0.00   -0.0008736    0.0000653   -0.0000000
 C    5.6904726   -6.0675002    0.0000000  0.00    0.0009610    0.0011795   -0.0000000
 C    7.7898914   -7.3514129    0.0000000  0.00    0.0004381    0.0005127   -0.0000000
 C    4.9670479   -7.2792585    0.0000000  0.00    0.0004494    0.0011873   -0.0000000
 C    7.0668609   -8.5228236    0.0000000  0.00    0.0009522    0.0013169   -0.0000000
 C    5.6748569   -8.4924736    0.0000000  0.00    0.0005967    0.0001783   -0.0000000
 C    7.1956189   -3.6694077    0.0000000  0.00   -0.0009713   -0.0006291   -0.0000000
 C    5.7551262   -3.6363798    0.0000000  0.00    0.0003558    0.0002462   -0.0000000
 C    7.8450851   -4.9040580    0.0000000  0.00   -0.0003845   -0.0000975   -0.0000000
 C    5.0008661   -4.8206927    0.0000000  0.00   -0.0022623    0.0004231   -0.0000000
 C    7.2730461   -1.2326448    0.0000000  0.00   -0.0006776   -0.0003005   -0.0000000
 C    5.8376984   -1.2237753    0.0000000  0.00   -0.0000658    0.0000124   -0.0000000
 C    7.9240475   -2.4642335    0.0000000  0.00    0.0001068   -0.0003213   -0.0000000
 C    5.0799238   -2.4022989    0.0000000  0.00   -0.0004858   -0.0005730   -0.0000000
 C    7.9598727    0.0000000    0.0000000  0.00   -0.0008745   -0.0000000   -0.0000000
 C    5.1597721    0.0000000    0.0000000  0.00    0.0005830   -0.0000000   -0.0000000
 C    3.5678241   -4.7592349    0.0000000  0.00    0.0013572    0.0001026   -0.0000000
 C    2.8408963   -5.9582196    0.0000000  0.00   -0.0000558    0.0001495   -0.0000000
 C    3.5235743   -7.2125251    0.0000000  0.00    0.0010831    0.0000598   -0.0000000
 C    3.6430385   -2.3591832    0.0000000  0.00   -0.0004638    0.0008616   -0.0000000
 C    2.8661030   -3.5125447    0.0000000  0.00   -0.0000574   -0.0002776   -0.0000000
 C    3.7712376    0.0000000    0.0000000  0.00   -0.0008292   -0.0000000   -0.0000000
 C    2.9793176   -1.1342571    0.0000000  0.00    0.0010442   -0.0011059   -0.0000000
 C    1.4170784   -5.8707999    0.0000000  0.00    0.0007311    0.0006549   -0.0000000
 C    0.7129358   -7.0950387    0.0000000  0.00    0.0003794   -0.0000550   -0.0000000
 C    2.7655696   -8.3808087    0.0000000  0.00    0.0009235   -0.0003164   -0.0000000
 C    1.4062360   -8.3175342    0.0000000  0.00   -0.0004066    0.0009158   -0.0000000
 C    1.4296152   -3.3589305    0.0000000  0.00    0.0006531    0.0002762   -0.0000000
 C    0.7140831   -4.5964108    0.0000000  0.00   -0.0009376    0.0002486   -0.0000000
 C    1.5826693   -0.8399533    0.0000000  0.00    0.0000354    0.0003447   -0.0000000
 C    0.7461412   -2.0075002    0.0000000  0.00   -0.0004848   -0.0007090   -0.0000000
 H    8.8737310   -7.3688310    0.0000000  0.00    0.0001030    0.0010622   -0.0000000
 H    7.5785797   -9.4783702    0.0000000  0.00    0.0004935    0.0001436   -0.0000000
 H    5.1467417   -9.4348022    0.0000000  0.00    0.0007653    0.0016807   -0.0000000
 H    8.9293546   -4.9352199    0.0000000  0.00   -0.0008707    0.0001102   -0.0000000
 H    9.0080791   -2.5042707    0.0000000  0.00   -0.0006098    0.0012953   -0.0000000
 H    9.0445912    0.0000000    0.0000000  0.00    0.0003541   -0.0000000   -0.0000000
 H    3.2405957   -9.3504753    0.0000000  0.00   -0.0008261    0.0001232   -0.0000000
 H    0.8687331   -9.2500268    0.0000000  0.00   -0.0006491   -0.0003131   -0.0000000
 C   -7.1265252    6.1031492    0.0000000  0.00    0.0008736   -0.0000653   -0.0000000
 C   -5.6904726    6.0675002    0.0000000  0.00   -0.0009610   -0.0011795   -0.0000000
 C   -7.7898914    7.3514129    0.0000000  0.00   -0.0004381   -0.0005127   -0.0000000
 C   -4.9670479    7.2792585    0.0000000  0.00   -0.0004494   -0.0011873   -0.0000000
 C   -7.0668609    8.5228236    0.0000000  0.00   -0.0009522   -0.0013169   -0.0000000
 C   -5.6748569    8.4924736    0.0000000  0.00   -0.0005967   -0.0001783   -0.0000000
 C   -7.1956189    3.6694077    0.0000000  0.00    0.0009713    0.0006291   -0.0000000
 C   -5.7551262    3.6363798    0.0000000  0.00   -0.0003558   -0.0002462   -0.0000000
 C   -7.8450851    4.9040580    0.0000000  0.00    0.0003845    0.0000975   -0.0000000
 C   -5.0008661    4.8206927    0.0000000  0.00    0.0022623   -0.0004231   -0.0000000
 C   -7.2730461    1.2326448    0.0000000  0.00    0.0006776    0.0003005   -0.0000000
 C   -5.8376984    1.2237753    0.0000000  0.00    0.0000658   -0.0000124   -0.0000000
 C   -7.9240475    2.4642335    0.0000000  0.00   -0.0001068    0.0003213   -0.0000000
 C   -5.0799238    2.4022989    0.0000000  0.00    0.0004858    0.0005730   -0.0000000
 C   -7.9598727    0.0000000    0.0000000  0.00    0.0008745   -0.0000000   -0.0000000
 C   -5.1597721    0.0000000    0.0000000  0.00   -0.0005830   -0.0000000   -0.0000000
 C   -3.5678241    4.7592349    0.0000000  0.00   -0.0013572   -0.0001026   -0.0000000
 C   -2.8408963    5.9582196    0.0000000  0.00    0.0000558   -0.0001495   -0.0000000
 C   -3.5235743    7.2125251    0.0000000  0.00   -0.0010831   -0.0000598   -0.0000000
 C   -3.6430385    2.3591832    0.0000000  0.00    0.0004638   -0.0008616   -0.0000000
 C   -2.8661030    3.5125447    0.0000000  0.00    0.0000574    0.0002776   -0.0000000
 C   -3.7712376    0.0000000    0.0000000  0.00    0.0008292   -0.0000000   -0.0000000
 C   -2.9793176    1.1342571    0.0000000  0.00   -0.0010442    0.0011059   -0.0000000
 C   -1.4170784    5.8707999    0.0000000  0.00   -0.0007311   -0.0006549   -0.0000000
 C   -0.7129358    7.0950387    0.0000000  0.00   -0.0003794    0.0000550   -0.0000000
 C   -2.7655696    8.3808087    0.0000000  0.00   -0.0009235    0.0003164   -0.0000000
 C   -1.4062360    8.3175342    0.0000000  0.00    0.0004066   -0.0009158   -0.0000000
 C   -1.4296152    3.3589305    0.0000000  0.00   -0.0006531   -0.0002762   -0.0000000
 C   -0.7140831    4.5964108    0.0000000  0.00    0.0009376   -0.0002486   -0.0000000
 C   -1.5826693    0.8399533    0.0000000  0.00   -0.0000354   -0.0003447   -0.0000000
 C   -0.7461412    2.0075002    0.0000000  0.00    0.0004848    0.0007090   -0.0000000
 H   -8.8737310    7.3688310    0.0000000  0.00   -0.0001030   -0.0010622   -0.0000000
 H   -7.5785797    9.4783702    0.0000000  0.00   -0.0004935   -0.0001436   -0.0000000
 H   -5.1467417    9.4348022    0.0000000  0.00   -0.0007653   -0.0016807   -0.0000000
 H   -8.9293546    4.9352199    0.0000000  0.00    0.0008707   -0.0001102   -0.0000000
 H   -9.0080791    2.5042707    0.0000000  0.00    0.0006098   -0.0012953   -0.0000000
 H   -9.0445912    0.0000000    0.0000000  0.00   -0.0003541   -0.0000000   -0.0000000
 H   -3.2405957    9.3504753    0.0000000  0.00    0.0008261   -0.0001232   -0.0000000
 H   -0.8687331    9.2500268    0.0000000  0.00    0.0006491    0.0003131   -0.0000000
 C    7.1265252    6.1031492    0.0000000  0.00   -0.0008736   -0.0000653   -0.0000000
 C    5.6904726    6.0675002    0.0000000  0.00    0.0009610   -0.0011795   -0.0000000
 C    7.7898914    7.3514129    0.0000000  0.00    0.0004381   -0.0005127   -0.0000000
 C    4.9670479    7.2792585    0.0000000  0.00    0.0004494   -0.0011873   -0.0000000
 C    7.0668609    8.5228236    0.0000000  0.00    0.0009522   -0.0013169   -0.0000000
 C    5.6748569    8.4924736    0.0000000  0.00    0.0005967   -0.0001783   -0.0000000
 C    7.1956189    3.6694077    0.0000000  0.00   -0.0009713    0.0006291   -0.0000000
 C    5.7551262    3.6363798    0.0000000  0.00    0.0003558   -0.0002462   -0.0000000
 C    7.8450851    4.9040580    0.0000000  0.00   -0.0003845    0.0000975   -0.0000000
 C    5.0008661    4.8206927    0.0000000  0.00   -0.0022623   -0.0004231   -0.0000000
 C    7.2730461    1.2326448    0.0000000  0.00   -0.0006776    0.0003005   -0.0000000
 C    5.8376984    1.2237753    0.0000000  0.00   -0.0000658   -0.0000124   -0.0000000
 C    7.9240475    2.4642335    0.0000000  0.00    0.0001068    0.0003213   -0.0000000
 C    5.0799238    2.4022989    0.0000000  0.00   -0.0004858    0.0005730   -0.0000000
 C    3.5678241    4.7592349    0.0000000  0.00    0.0013572   -0.0001026   -0.0000000
 C    2.8408963    5.9582196    0.0000000  0.00   -0.0000558   -0.0001495   -0.0000000
 C    3.5235743    7.2125251    0.0000000  0.00    0.0010831   -0.0000598   -0.0000000
 C    3.6430385    2.3591832    0.0000000  0.00   -0.0004638   -0.0008616   -0.0000000
 C    2.8661030    3.5125447    0.0000000  0.00   -0.0000574    0.0002776   -0.0000000
 C    2.9793176    1.1342571    0.0000000  0.00    0.0010442    0.0011059   -0.0000000
 C    1.4170784    5.8707999    0.0000000  0.00    0.0007311   -0.0006549   -0.0000000
 C    0.7129358    7.0950387    0.0000000  0.00    0.0003794    0.0000550   -0.0000000
 C    2.7655696    8.3808087    0.0000000  0.00    0.0009235    0.0003164   -0.0000000
 C    1.4062360    8.3175342    0.0000000  0.00   -0.0004066   -0.0009158   -0.0000000
 C    1.4296152    3.3589305    0.0000000  0.00    0.0006531   -0.0002762   -0.0000000
 C    0.7140831    4.5964108    0.0000000  0.00   -0.0009376   -0.0002486   -0.0000000
 C    1.5826693    0.8399533    0.0000000  0.00    0.0000354   -0.0003447   -0.0000000
 C    0.7461412    2.0075002    0.0000000  0.00   -0.0004848    0.0007090   -0.0000000
 H    8.8737310    7.3688310    0.0000000  0.00    0.0001030   -0.0010622   -0.0000000
 H    7.5785797    9.4783702    0.0000000  0.00    0.0004935   -0.0001436   -0.0000000
 H    5.1467417    9.4348022    0.0000000  0.00    0.0007653   -0.0016807   -0.0000000
 H    8.9293546    4.9352199    0.0000000  0.00   -0.0008707   -0.0001102   -0.0000000
 H    9.0080791    2.5042707    0.0000000  0.00   -0.0006098   -0.0012953   -0.0000000
 H    3.2405957    9.3504753    0.0000000  0.00   -0.0008261   -0.0001232   -0.0000000
 H    0.8687331    9.2500268    0.0000000  0.00   -0.0006491    0.0003131   -0.0000000
 C   -7.1265252   -6.1031492    0.0000000  0.00    0.0008736    0.0000653   -0.0000000
 C   -5.6904726   -6.0675002    0.0000000  0.00   -0.0009610    0.0011795   -0.0000000
 C   -7.7898914   -7.3514129    0.0000000  0.00   -0.0004381    0.0005127   -0.0000000
 C   -4.9670479   -7.2792585    0.0000000  0.00   -0.0004494    0.0011873   -0.0000000
 C   -7.0668609   -8.5228236    0.0000000  0.00   -0.0009522    0.0013169   -0.0000000
 C   -5.6748569   -8.4924736    0.0000000  0.00   -0.0005967    0.0001783   -0.0000000
 C   -7.1956189   -3.6694077    0.0000000  0.00    0.0009713   -0.0006291   -0.0000000
 C   -5.7551262   -3.6363798    0.0000000  0.00   -0.0003558    0.0002462   -0.0000000
 C   -7.8450851   -4.9040580    0.0000000  0.00    0.0003845   -0.0000975   -0.0000000
 C   -5.0008661   -4.8206927    0.0000000  0.00    0.0022623    0.0004231   -0.0000000
 C   -7.2730461   -1.2326448    0.0000000  0.00    0.0006776   -0.0003005   -0.0000000
 C   -5.8376984   -1.2237753    0.0000000  0.00    0.0000658    0.0000124   -0.0000000
 C   -7.9240475   -2.4642335    0.0000000  0.00   -0.0001068   -0.0003213   -0.0000000
 C   -5.0799238   -2.4022989    0.0000000  0.00    0.0004858   -0.0005730   -0.0000000
 C   -3.5678241   -4.7592349    0.0000000  0.00   -0.0013572    0.0001026   -0.0000000
 C   -2.8408963   -5.9582196    0.0000000  0.00    0.0000558    0.0001495   -0.0000000
 C   -3.5235743   -7.2125251    0.0000000  0.00   -0.0010831    0.0000598   -0.0000000
 C   -3.6430385   -2.3591832    0.0000000  0.00    0.0004638    0.0008616   -0.0000000
 C   -2.8661030   -3.5125447    0.0000000  0.00    0.0000574   -0.0002776   -0.0000000
 C   -2.9793176   -1.1342571    0.0000000  0.00   -0.0010442   -0.0011059   -0.0000000
 C   -1.4170784   -5.8707999    0.0000000  0.00   -0.0007311    0.0006549   -0.0000000
 C   -0.7129358   -7.0950387    0.0000000  0.00   -0.0003794   -0.0000550   -0.0000000
 C   -2.7655696   -8.3808087    0.0000000  0.00   -0.0009235   -0.0003164   -0.0000000
 C   -1.4062360   -8.3175342    0.0000000  0.00    0.0004066    0.0009158   -0.0000000
 C   -1.4296152   -3.3589305    0.0000000  0.00   -0.0006531    0.0002762   -0.0000000
 C   -0.7140831   -4.5964108    0.0000000  0.00    0.0009376    0.0002486   -0.0000000
 C   -1.5826693   -0.8399533    0.0000000  0.00   -0.0000354    0.0003447   -0.0000000
 C   -0.7461412   -2.0075002    0.0000000  0.00    0.0004848   -0.0007090   -0.0000000
 H   -8.8737310   -7.3688310    0.0000000  0.00   -0.0001030    0.0010622   -0.0000000
 H   -7.5785797   -9.4783702    0.0000000  0.00   -0.0004935    0.0001436   -0.0000000
 H   -5.1467417   -9.4348022    0.0000000  0.00   -0.0007653    0.0016807   -0.0000000
 H   -8.9293546   -4.9352199    0.0000000  0.00    0.0008707    0.0001102   -0.0000000
 H   -9.0080791   -2.5042707    0.0000000  0.00    0.0006098    0.0012953   -0.0000000
 H   -3.2405957   -9.3504753    0.0000000  0.00    0.0008261    0.0001232   -0.0000000
 H   -0.8687331   -9.2500268    0.0000000  0.00    0.0006491   -0.0003131   -0.0000000
