148
 Energy =   -4513.0459979220
 C    7.1112155   -6.0940736    0.0000000  0.00    0.0004299    0.0007019   -0.0000000
 C    5.6784285   -6.0582474    0.0000000  0.00    0.0007738    0.0008801   -0.0000000
 C    7.7791753   -7.3385707    0.0000000  0.00    0.0028849   -0.0009945   -0.0000000
 C    4.9584371   -7.2676370    0.0000000  0.00   -0.0002964   -0.0008307   -0.0000000
 C    7.0590765   -8.5089758    0.0000000  0.00    0.0006812    0.0000802   -0.0000000
 C    5.6670382   -8.4789266    0.0000000  0.00    0.0018911   -0.0000454   -0.0000000
 C    7.1911018   -3.6637976    0.0000000  0.00    0.0007403    0.0013704   -0.0000000
 C    5.7492326   -3.6317210    0.0000000  0.00   -0.0013686    0.0006097   -0.0000000
 C    7.8354704   -4.9020379    0.0000000  0.00    0.0022709    0.0007558   -0.0000000
 C    4.9942183   -4.8119862    0.0000000  0.00    0.0015951   -0.0003857   -0.0000000
 C    7.2821308   -1.2297172    0.0000000  0.00    0.0001426   -0.0002214   -0.0000000
 C    5.8439069   -1.2220721    0.0000000  0.00   -0.0003245    0.0012706   -0.0000000
 C    7.9252448   -2.4701267    0.0000000  0.00    0.0006076    0.0019653   -0.0000000
 C    5.0783876   -2.3993728    0.0000000  0.00    0.0004471    0.0004867   -0.0000000
 C    7.9629135    0.0000000    0.0000000  0.00    0.0005993   -0.0000000   -0.0000000
 C    5.1632500    0.0000000    0.0000000  0.00    0.0008374   -0.0000000   -0.0000000
 C    3.5621132   -4.7499440    0.0000000  0.00   -0.0007511    0.0002770   -0.0000000
 C    2.8341042   -5.9506902    0.0000000  0.00   -0.0013437   -0.0006394   -0.0000000
 C    3.5147147   -7.2061122    0.0000000  0.00   -0.0002423    0.0007254   -0.0000000
 C    3.6425857   -2.3542104    0.0000000  0.00   -0.0013338   -0.0004133   -0.0000000
 C    2.8632800   -3.5046387    0.0000000  0.00   -0.0007224    0.0018846   -0.0000000
 C    3.7725777    0.0000000    0.0000000  0.00   -0.0011905   -0.0000000   -0.0000000
 C    2.9798339   -1.1299136    0.0000000  0.00   -0.0005051    0.0003160   -0.0000000
 C    1.4141690   -5.8615205    0.0000000  0.00    0.0004987   -0.0003281   -0.0000000
 C    0.7118994   -7.0858939    0.0000000  0.00   -0.0004929   -0.0001712   -0.0000000
 C    2.7583081   -8.3741776    0.0000000  0.00    0.0000243   -0.0007700   -0.0000000
 C    1.4001631   -8.3095870    0.0000000  0.00    0.0017433    0.0003201   -0.0000000
 C    1.4257929   -3.3499742    0.0000000  0.00   -0.0012857    0.0000240   -0.0000000
 C    0.7129105   -4.5858992    0.0000000  0.00   -0.0023135   -0.0005178   -0.0000000
 C    1.5831684   -0.8307633    0.0000000  0.00   -0.0022605    0.0020172   -0.0000000
 C    0.7442699   -2.0025443    0.0000000  0.00   -0.0009223    0.0003194   -0.0000000
 H    8.8698591   -7.3446451    0.0000000  0.00    0.0017549   -0.0013537   -0.0000000
 H    7.5712816   -9.4697238    0.0000000  0.00    0.0006603   -0.0027857   -0.0000000
 H    5.1372158   -9.4286656    0.0000000  0.00    0.0010441    0.0004140   -0.0000000
 H    8.9266182   -4.9406607    0.0000000  0.00    0.0011514   -0.0006542   -0.0000000
 H    9.0111671   -2.5241733    0.0000000  0.00   -0.0013932   -0.0002816   -0.0000000
 H    9.0474065    0.0000000    0.0000000  0.00   -0.0025613   -0.0000000   -0.0000000
 H    3.2205754   -9.3604789    0.0000000  0.00    0.0008389   -0.0006397   -0.0000000
 H    0.8707341   -9.2633827    0.0000000  0.00    0.0028469    0.0016894   -0.0000000
 C   -7.1112155    6.0940736    0.0000000  0.00   -0.0004299   -0.0007019   -0.0000000
 C   -5.6784285    6.0582474    0.0000000  0.00   -0.0007738   -0.0008801   -0.0000000
 C   -7.7791753    7.3385707    0.0000000  0.00   -0.0028849    0.0009945   -0.0000000
 C   -4.9584371    7.2676370    0.0000000  0.00    0.0002964    0.0008307   -0.0000000
 C   -7.0590765    8.5089758    0.0000000  0.00   -0.0006812   -0.0000802   -0.0000000
 C   -5.6670382    8.4789266    0.0000000  0.00   -0.0018911    0.0000454   -0.0000000
 C   -7.1911018    3.6637976    0.0000000  0.00   -0.0007403   -0.0013704   -0.0000000
 C   -5.7492326    3.6317210    0.0000000  0.00    0.0013686   -0.0006097   -0.0000000
 C   -7.8354704    4.9020379    0.0000000  0.00   -0.0022709   -0.0007558   -0.0000000
 C   -4.9942183    4.8119862    0.0000000  0.00   -0.0015951    0.0003857   -0.0000000
 C   -7.2821308    1.2297172    0.0000000  0.00   -0.0001426    0.0002214   -0.0000000
 C   -5.8439069    1.2220721    0.0000000  0.00    0.0003245   -0.0012706   -0.0000000
 C   -7.9252448    2.4701267    0.0000000  0.00   -0.0006076   -0.0019653   -0.0000000
 C   -5.0783876    2.3993728    0.0000000  0.00   -0.0004471   -0.0004867   -0.0000000
 C   -7.9629135    0.0000000    0.0000000  0.00   -0.0005993   -0.0000000   -0.0000000
 C   -5.1632500    0.0000000    0.0000000  0.00   -0.0008374   -0.0000000   -0.0000000
 C   -3.5621132    4.7499440    0.0000000  0.00    0.0007511   -0.0002770   -0.0000000
 C   -2.8341042    5.9506902    0.0000000  0.00    0.0013437    0.0006394   -0.0000000
 C   -3.5147147    7.2061122    0.0000000  0.00    0.0002423   -0.0007254   -0.0000000
 C   -3.6425857    2.3542104    0.0000000  0.00    0.0013338    0.0004133   -0.0000000
 C   -2.8632800    3.5046387    0.0000000  0.00    0.0007224   -0.0018846   -0.0000000
 C   -3.7725777    0.0000000    0.0000000  0.00    0.0011905   -0.0000000   -0.0000000
 C   -2.9798339    1.1299136    0.0000000  0.00    0.0005051   -0.0003160   -0.0000000
 C   -1.4141690    5.8615205    0.0000000  0.00   -0.0004987    0.0003281   -0.0000000
 C   -0.7118994    7.0858939    0.0000000  0.00    0.0004929    0.0001712   -0.0000000
 C   -2.7583081    8.3741776    0.0000000  0.00   -0.0000243    0.0007700   -0.0000000
 C   -1.4001631    8.3095870    0.0000000  0.00   -0.0017433   -0.0003201   -0.0000000
 C   -1.4257929    3.3499742    0.0000000  0.00    0.0012857   -0.0000240   -0.0000000
 C   -0.7129105    4.5858992    0.0000000  0.00    0.0023135    0.0005178   -0.0000000
 C   -1.5831684    0.8307633    0.0000000  0.00    0.0022605   -0.0020172   -0.0000000
 C   -0.7442699    2.0025443    0.0000000  0.00    0.0009223   -0.0003194   -0.0000000
 H   -8.8698591    7.3446451    0.0000000  0.00   -0.0017549    0.0013537   -0.0000000
 H   -7.5712816    9.4697238    0.0000000  0.00   -0.0006603    0.0027857   -0.0000000
 H   -5.1372158    9.4286656    0.0000000  0.00   -0.0010441   -0.0004140   -0.0000000
 H   -8.9266182    4.9406607    0.0000000  0.00   -0.0011514    0.0006542   -0.0000000
 H   -9.0111671    2.5241733    0.0000000  0.00    0.0013932    0.0002816   -0.0000000
 H   -9.0474065    0.0000000    0.0000000  0.00    0.0025613   -0.0000000   -0.0000000
 H   -3.2205754    9.3604789    0.0000000  0.00   -0.0008389    0.0006397   -0.0000000
 H   -0.8707341    9.2633827    0.0000000  0.00   -0.0028469   -0.0016894   -0.0000000
 C    7.1112155    6.0940736    0.0000000  0.00    0.0004299   -0.0007019   -0.0000000
 C    5.6784285    6.0582474    0.0000000  0.00    0.0007738   -0.0008801   -0.0000000
 C    7.7791753    7.3385707    0.0000000  0.00    0.0028849    0.0009945   -0.0000000
 C    4.9584371    7.2676370    0.0000000  0.00   -0.0002964    0.0008307   -0.0000000
 C    7.0590765    8.5089758    0.0000000  0.00    0.0006812   -0.0000802   -0.0000000
 C    5.6670382    8.4789266    0.0000000  0.00    0.0018911    0.0000454   -0.0000000
 C    7.1911018    3.6637976    0.0000000  0.00    0.0007403   -0.0013704   -0.0000000
 C    5.7492326    3.6317210    0.0000000  0.00   -0.0013686   -0.0006097   -0.0000000
 C    7.8354704    4.9020379    0.0000000  0.00    0.0022709   -0.0007558   -0.0000000
 C    4.9942183    4.8119862    0.0000000  0.00    0.0015951    0.0003857   -0.0000000
 C    7.2821308    1.2297172    0.0000000  0.00    0.0001426    0.0002214   -0.0000000
 C    5.8439069    1.2220721    0.0000000  0.00   -0.0003245   -0.0012706   -0.0000000
 C    7.9252448    2.4701267    0.0000000  0.00    0.0006076   -0.0019653   -0.0000000
 C    5.0783876    2.3993728    0.0000000  0.00    0.0004471   -0.0004867   -0.0000000
 C    3.5621132    4.7499440    0.0000000  0.00   -0.0007511   -0.0002770   -0.0000000
 C    2.8341042    5.9506902    0.0000000  0.00   -0.0013437    0.0006394   -0.0000000
 C    3.5147147    7.2061122    0.0000000  0.00   -0.0002423   -0.0007254   -0.0000000
 C    3.6425857    2.3542104    0.0000000  0.00   -0.0013338    0.0004133   -0.0000000
 C    2.8632800    3.5046387    0.0000000  0.00   -0.0007224   -0.0018846   -0.0000000
 C    2.9798339    1.1299136    0.0000000  0.00   -0.0005051   -0.0003160   -0.0000000
 C    1.4141690    5.8615205    0.0000000  0.00    0.0004987    0.0003281   -0.0000000
 C    0.7118994    7.0858939    0.0000000  0.00   -0.0004929    0.0001712   -0.0000000
 C    2.7583081    8.3741776    0.0000000  0.00    0.0000243    0.0007700   -0.0000000
 C    1.4001631    8.3095870    0.0000000  0.00    0.0017433   -0.0003201   -0.0000000
 C    1.4257929    3.3499742    0.0000000  0.00   -0.0012857   -0.0000240   -0.0000000
 C    0.7129105    4.5858992    0.0000000  0.00   -0.0023135    0.0005178   -0.0000000
 C    1.5831684    0.8307633    0.0000000  0.00   -0.0022605   -0.0020172   -0.0000000
 C    0.7442699    2.0025443    0.0000000  0.00   -0.0009223   -0.0003194   -0.0000000
 H    8.8698591    7.3446451    0.0000000  0.00    0.0017549    0.0013537   -0.0000000
 H    7.5712816    9.4697238    0.0000000  0.00    0.0006603    0.0027857   -0.0000000
 H    5.1372158    9.4286656    0.0000000  0.00    0.0010441   -0.0004140   -0.0000000
 H    8.9266182    4.9406607    0.0000000  0.00    0.0011514    0.0006542   -0.0000000
 H    9.0111671    2.5241733    0.0000000  0.00   -0.0013932    0.0002816   -0.0000000
 H    3.2205754    9.3604789    0.0000000  0.00    0.0008389    0.0006397   -0.0000000
 H    0.8707341    9.2633827    0.0000000  0.00    0.0028469   -0.0016894   -0.0000000
 C   -7.1112155   -6.0940736    0.0000000  0.00   -0.0004299    0.0007019   -0.0000000
 C   -5.6784285   -6.0582474    0.0000000  0.00   -0.0007738    0.0008801   -0.0000000
 C   -7.7791753   -7.3385707    0.0000000  0.00   -0.0028849   -0.0009945   -0.0000000
 C   -4.9584371   -7.2676370    0.0000000  0.00    0.0002964   -0.0008307   -0.0000000
 C   -7.0590765   -8.5089758    0.0000000  0.00   -0.0006812    0.0000802   -0.0000000
 C   -5.6670382   -8.4789266    0.0000000  0.00   -0.0018911   -0.0000454   -0.0000000
 C   -7.1911018   -3.6637976    0.0000000  0.00   -0.0007403    0.0013704   -0.0000000
 C   -5.7492326   -3.6317210    0.0000000  0.00    0.0013686    0.0006097   -0.0000000
 C   -7.8354704   -4.9020379    0.0000000  0.00   -0.0022709    0.0007558   -0.0000000
 C   -4.9942183   -4.8119862    0.0000000  0.00   -0.0015951   -0.0003857   -0.0000000
 C   -7.2821308   -1.2297172    0.0000000  0.00   -0.0001426   -0.0002214   -0.0000000
 C   -5.8439069   -1.2220721    0.0000000  0.00    0.0003245    0.0012706   -0.0000000
 C   -7.9252448   -2.4701267    0.0000000  0.00   -0.0006076    0.0019653   -0.0000000
 C   -5.0783876   -2.3993728    0.0000000  0.00   -0.0004471    0.0004867   -0.0000000
 C   -3.5621132   -4.7499440    0.0000000  0.00    0.0007511    0.0002770   -0.0000000
 C   -2.8341042   -5.9506902    0.0000000  0.00    0.0013437   -0.0006394   -0.0000000
 C   -3.5147147   -7.2061122    0.0000000  0.00    0.0002423    0.0007254   -0.0000000
 C   -3.6425857   -2.3542104    0.0000000  0.00    0.0013338   -0.0004133   -0.0000000
 C   -2.8632800   -3.5046387    0.0000000  0.00    0.0007224    0.0018846   -0.0000000
 C   -2.9798339   -1.1299136    0.0000000  0.00    0.0005051    0.0003160   -0.0000000
 C   -1.4141690   -5.8615205    0.0000000  0.00   -0.0004987   -0.0003281   -0.0000000
 C   -0.7118994   -7.0858939    0.0000000  0.00    0.0004929   -0.0001712   -0.0000000
 C   -2.7583081   -8.3741776    0.0000000  0.00   -0.0000243   -0.0007700   -0.0000000
 C   -1.4001631   -8.3095870    0.0000000  0.00   -0.0017433    0.0003201   -0.0000000
 C   -1.4257929   -3.3499742    0.0000000  0.00    0.0012857    0.0000240   -0.0000000
 C   -0.7129105   -4.5858992    0.0000000  0.00    0.0023135   -0.0005178   -0.0000000
 C   -1.5831684   -0.8307633    0.0000000  0.00    0.0022605    0.0020172   -0.0000000
 C   -0.7442699   -2.0025443    0.0000000  0.00    0.0009223    0.0003194   -0.0000000
 H   -8.8698591   -7.3446451    0.0000000  0.00   -0.0017549   -0.0013537   -0.0000000
 H   -7.5712816   -9.4697238    0.0000000  0.00   -0.0006603   -0.0027857   -0.0000000
 H   -5.1372158   -9.4286656    0.0000000  0.00   -0.0010441    0.0004140   -0.0000000
 H   -8.9266182   -4.9406607    0.0000000  0.00   -0.0011514   -0.0006542   -0.0000000
 H   -9.0111671   -2.5241733    0.0000000  0.00    0.0013932   -0.0002816   -0.0000000
 H   -3.2205754   -9.3604789    0.0000000  0.00   -0.0008389   -0.0006397   -0.0000000
 H   -0.8707341   -9.2633827    0.0000000  0.00   -0.0028469    0.0016894   -0.0000000
