148
 Energy =   -4513.4158358520
 C    7.1328273   -6.0919434    0.0000000  0.00   -0.0013941   -0.0005558   -0.0000000
 C    5.6955699   -6.0526119    0.0000000  0.00    0.0004491    0.0000746   -0.0000000
 C    7.7961271   -7.3414167    0.0000000  0.00    0.0010462    0.0001799   -0.0000000
 C    4.9715223   -7.2651850    0.0000000  0.00    0.0006286   -0.0019590   -0.0000000
 C    7.0722264   -8.5084290    0.0000000  0.00    0.0003651   -0.0010414   -0.0000000
 C    5.6767116   -8.4737326    0.0000000  0.00    0.0013475    0.0004428   -0.0000000
 C    7.2048056   -3.6612393    0.0000000  0.00   -0.0010661   -0.0012036   -0.0000000
 C    5.7593558   -3.6262382    0.0000000  0.00   -0.0012727    0.0001650   -0.0000000
 C    7.8537663   -4.8962465    0.0000000  0.00    0.0007366   -0.0004670   -0.0000000
 C    5.0057522   -4.8066903    0.0000000  0.00    0.0005938   -0.0002411   -0.0000000
 C    7.2824482   -1.2276913    0.0000000  0.00    0.0003618   -0.0002023   -0.0000000
 C    5.8470276   -1.2182636    0.0000000  0.00   -0.0011400    0.0001930   -0.0000000
 C    7.9354148   -2.4618646    0.0000000  0.00    0.0002544    0.0000587   -0.0000000
 C    5.0841567   -2.3934174    0.0000000  0.00    0.0001163   -0.0005045   -0.0000000
 C    7.9689265    0.0000000    0.0000000  0.00   -0.0009376   -0.0000000   -0.0000000
 C    5.1701634    0.0000000    0.0000000  0.00   -0.0015328   -0.0000000   -0.0000000
 C    3.5664875   -4.7414865    0.0000000  0.00   -0.0004837   -0.0008438   -0.0000000
 C    2.8408278   -5.9443486    0.0000000  0.00   -0.0014212    0.0007478   -0.0000000
 C    3.5226982   -7.1967012    0.0000000  0.00   -0.0004087   -0.0013381   -0.0000000
 C    3.6457240   -2.3476676    0.0000000  0.00   -0.0008319   -0.0003451   -0.0000000
 C    2.8686357   -3.5033675    0.0000000  0.00   -0.0003256    0.0015326   -0.0000000
 C    3.7797176    0.0000000    0.0000000  0.00    0.0003374   -0.0000000   -0.0000000
 C    2.9828029   -1.1252738    0.0000000  0.00   -0.0008034   -0.0000419   -0.0000000
 C    1.4186337   -5.8546622    0.0000000  0.00    0.0012943   -0.0002658   -0.0000000
 C    0.7151503   -7.0796945    0.0000000  0.00   -0.0009846    0.0005503   -0.0000000
 C    2.7679742   -8.3628810    0.0000000  0.00    0.0000854    0.0015303   -0.0000000
 C    1.4056629   -8.2985369    0.0000000  0.00    0.0002427   -0.0011037   -0.0000000
 C    1.4237579   -3.3408309    0.0000000  0.00    0.0002952   -0.0004402   -0.0000000
 C    0.7154357   -4.5787479    0.0000000  0.00   -0.0011184    0.0006920   -0.0000000
 C    1.5788573   -0.8035741    0.0000000  0.00   -0.0001807    0.0001664   -0.0000000
 C    0.7382245   -1.9947936    0.0000000  0.00    0.0001023   -0.0006220   -0.0000000
 H    8.8799919   -7.3589484    0.0000000  0.00   -0.0006421    0.0004459   -0.0000000
 H    7.5802847   -9.4658216    0.0000000  0.00    0.0004155   -0.0007670   -0.0000000
 H    5.1481583   -9.4158763    0.0000000  0.00   -0.0003992    0.0004658   -0.0000000
 H    8.9379617   -4.9285048    0.0000000  0.00   -0.0003790   -0.0003012   -0.0000000
 H    9.0194191   -2.5024650    0.0000000  0.00    0.0001620    0.0002944   -0.0000000
 H    9.0538771    0.0000000    0.0000000  0.00    0.0014832   -0.0000000   -0.0000000
 H    3.2416855   -9.3331887    0.0000000  0.00    0.0002304   -0.0011420   -0.0000000
 H    0.8685740   -9.2315174    0.0000000  0.00    0.0003931    0.0003673   -0.0000000
 C   -7.1328273    6.0919434    0.0000000  0.00    0.0013941    0.0005558   -0.0000000
 C   -5.6955699    6.0526119    0.0000000  0.00   -0.0004491   -0.0000746   -0.0000000
 C   -7.7961271    7.3414167    0.0000000  0.00   -0.0010462   -0.0001799   -0.0000000
 C   -4.9715223    7.2651850    0.0000000  0.00   -0.0006286    0.0019590   -0.0000000
 C   -7.0722264    8.5084290    0.0000000  0.00   -0.0003651    0.0010414   -0.0000000
 C   -5.6767116    8.4737326    0.0000000  0.00   -0.0013475   -0.0004428   -0.0000000
 C   -7.2048056    3.6612393    0.0000000  0.00    0.0010661    0.0012036   -0.0000000
 C   -5.7593558    3.6262382    0.0000000  0.00    0.0012727   -0.0001650   -0.0000000
 C   -7.8537663    4.8962465    0.0000000  0.00   -0.0007366    0.0004670   -0.0000000
 C   -5.0057522    4.8066903    0.0000000  0.00   -0.0005938    0.0002411   -0.0000000
 C   -7.2824482    1.2276913    0.0000000  0.00   -0.0003618    0.0002023   -0.0000000
 C   -5.8470276    1.2182636    0.0000000  0.00    0.0011400   -0.0001930   -0.0000000
 C   -7.9354148    2.4618646    0.0000000  0.00   -0.0002544   -0.0000587   -0.0000000
 C   -5.0841567    2.3934174    0.0000000  0.00   -0.0001163    0.0005045   -0.0000000
 C   -7.9689265    0.0000000    0.0000000  0.00    0.0009376   -0.0000000   -0.0000000
 C   -5.1701634    0.0000000    0.0000000  0.00    0.0015328   -0.0000000   -0.0000000
 C   -3.5664875    4.7414865    0.0000000  0.00    0.0004837    0.0008438   -0.0000000
 C   -2.8408278    5.9443486    0.0000000  0.00    0.0014212   -0.0007478   -0.0000000
 C   -3.5226982    7.1967012    0.0000000  0.00    0.0004087    0.0013381   -0.0000000
 C   -3.6457240    2.3476676    0.0000000  0.00    0.0008319    0.0003451   -0.0000000
 C   -2.8686357    3.5033675    0.0000000  0.00    0.0003256   -0.0015326   -0.0000000
 C   -3.7797176    0.0000000    0.0000000  0.00   -0.0003374   -0.0000000   -0.0000000
 C   -2.9828029    1.1252738    0.0000000  0.00    0.0008034    0.0000419   -0.0000000
 C   -1.4186337    5.8546622    0.0000000  0.00   -0.0012943    0.0002658   -0.0000000
 C   -0.7151503    7.0796945    0.0000000  0.00    0.0009846   -0.0005503   -0.0000000
 C   -2.7679742    8.3628810    0.0000000  0.00   -0.0000854   -0.0015303   -0.0000000
 C   -1.4056629    8.2985369    0.0000000  0.00   -0.0002427    0.0011037   -0.0000000
 C   -1.4237579    3.3408309    0.0000000  0.00   -0.0002952    0.0004402   -0.0000000
 C   -0.7154357    4.5787479    0.0000000  0.00    0.0011184   -0.0006920   -0.0000000
 C   -1.5788573    0.8035741    0.0000000  0.00    0.0001807   -0.0001664   -0.0000000
 C   -0.7382245    1.9947936    0.0000000  0.00   -0.0001023    0.0006220   -0.0000000
 H   -8.8799919    7.3589484    0.0000000  0.00    0.0006421   -0.0004459   -0.0000000
 H   -7.5802847    9.4658216    0.0000000  0.00   -0.0004155    0.0007670   -0.0000000
 H   -5.1481583    9.4158763    0.0000000  0.00    0.0003992   -0.0004658   -0.0000000
 H   -8.9379617    4.9285048    0.0000000  0.00    0.0003790    0.0003012   -0.0000000
 H   -9.0194191    2.5024650    0.0000000  0.00   -0.0001620   -0.0002944   -0.0000000
 H   -9.0538771    0.0000000    0.0000000  0.00   -0.0014832   -0.0000000   -0.0000000
 H   -3.2416855    9.3331887    0.0000000  0.00   -0.0002304    0.0011420   -0.0000000
 H   -0.8685740    9.2315174    0.0000000  0.00   -0.0003931   -0.0003673   -0.0000000
 C    7.1328273    6.0919434    0.0000000  0.00   -0.0013941    0.0005558   -0.0000000
 C    5.6955699    6.0526119    0.0000000  0.00    0.0004491   -0.0000746   -0.0000000
 C    7.7961271    7.3414167    0.0000000  0.00    0.0010462   -0.0001799   -0.0000000
 C    4.9715223    7.2651850    0.0000000  0.00    0.0006286    0.0019590   -0.0000000
 C    7.0722264    8.5084290    0.0000000  0.00    0.0003651    0.0010414   -0.0000000
 C    5.6767116    8.4737326    0.0000000  0.00    0.0013475   -0.0004428   -0.0000000
 C    7.2048056    3.6612393    0.0000000  0.00   -0.0010661    0.0012036   -0.0000000
 C    5.7593558    3.6262382    0.0000000  0.00   -0.0012727   -0.0001650   -0.0000000
 C    7.8537663    4.8962465    0.0000000  0.00    0.0007366    0.0004670   -0.0000000
 C    5.0057522    4.8066903    0.0000000  0.00    0.0005938    0.0002411   -0.0000000
 C    7.2824482    1.2276913    0.0000000  0.00    0.0003618    0.0002023   -0.0000000
 C    5.8470276    1.2182636    0.0000000  0.00   -0.0011400   -0.0001930   -0.0000000
 C    7.9354148    2.4618646    0.0000000  0.00    0.0002544   -0.0000587   -0.0000000
 C    5.0841567    2.3934174    0.0000000  0.00    0.0001163    0.0005045   -0.0000000
 C    3.5664875    4.7414865    0.0000000  0.00   -0.0004837    0.0008438   -0.0000000
 C    2.8408278    5.9443486    0.0000000  0.00   -0.0014212   -0.0007478   -0.0000000
 C    3.5226982    7.1967012    0.0000000  0.00   -0.0004087    0.0013381   -0.0000000
 C    3.6457240    2.3476676    0.0000000  0.00   -0.0008319    0.0003451   -0.0000000
 C    2.8686357    3.5033675    0.0000000  0.00   -0.0003256   -0.0015326   -0.0000000
 C    2.9828029    1.1252738    0.0000000  0.00   -0.0008034    0.0000419   -0.0000000
 C    1.4186337    5.8546622    0.0000000  0.00    0.0012943    0.0002658   -0.0000000
 C    0.7151503    7.0796945    0.0000000  0.00   -0.0009846   -0.0005503   -0.0000000
 C    2.7679742    8.3628810    0.0000000  0.00    0.0000854   -0.0015303   -0.0000000
 C    1.4056629    8.2985369    0.0000000  0.00    0.0002427    0.0011037   -0.0000000
 C    1.4237579    3.3408309    0.0000000  0.00    0.0002952    0.0004402   -0.0000000
 C    0.7154357    4.5787479    0.0000000  0.00   -0.0011184   -0.0006920   -0.0000000
 C    1.5788573    0.8035741    0.0000000  0.00   -0.0001807   -0.0001664   -0.0000000
 C    0.7382245    1.9947936    0.0000000  0.00    0.0001023    0.0006220   -0.0000000
 H    8.8799919    7.3589484    0.0000000  0.00   -0.0006421   -0.0004459   -0.0000000
 H    7.5802847    9.4658216    0.0000000  0.00    0.0004155    0.0007670   -0.0000000
 H    5.1481583    9.4158763    0.0000000  0.00   -0.0003992   -0.0004658   -0.0000000
 H    8.9379617    4.9285048    0.0000000  0.00   -0.0003790    0.0003012   -0.0000000
 H    9.0194191    2.5024650    0.0000000  0.00    0.0001620   -0.0002944   -0.0000000
 H    3.2416855    9.3331887    0.0000000  0.00    0.0002304    0.0011420   -0.0000000
 H    0.8685740    9.2315174    0.0000000  0.00    0.0003931   -0.0003673   -0.0000000
 C   -7.1328273   -6.0919434    0.0000000  0.00    0.0013941   -0.0005558   -0.0000000
 C   -5.6955699   -6.0526119    0.0000000  0.00   -0.0004491    0.0000746   -0.0000000
 C   -7.7961271   -7.3414167    0.0000000  0.00   -0.0010462    0.0001799   -0.0000000
 C   -4.9715223   -7.2651850    0.0000000  0.00   -0.0006286   -0.0019590   -0.0000000
 C   -7.0722264   -8.5084290    0.0000000  0.00   -0.0003651   -0.0010414   -0.0000000
 C   -5.6767116   -8.4737326    0.0000000  0.00   -0.0013475    0.0004428   -0.0000000
 C   -7.2048056   -3.6612393    0.0000000  0.00    0.0010661   -0.0012036   -0.0000000
 C   -5.7593558   -3.6262382    0.0000000  0.00    0.0012727    0.0001650   -0.0000000
 C   -7.8537663   -4.8962465    0.0000000  0.00   -0.0007366   -0.0004670   -0.0000000
 C   -5.0057522   -4.8066903    0.0000000  0.00   -0.0005938   -0.0002411   -0.0000000
 C   -7.2824482   -1.2276913    0.0000000  0.00   -0.0003618   -0.0002023   -0.0000000
 C   -5.8470276   -1.2182636    0.0000000  0.00    0.0011400    0.0001930   -0.0000000
 C   -7.9354148   -2.4618646    0.0000000  0.00   -0.0002544    0.0000587   -0.0000000
 C   -5.0841567   -2.3934174    0.0000000  0.00   -0.0001163   -0.0005045   -0.0000000
 C   -3.5664875   -4.7414865    0.0000000  0.00    0.0004837   -0.0008438   -0.0000000
 C   -2.8408278   -5.9443486    0.0000000  0.00    0.0014212    0.0007478   -0.0000000
 C   -3.5226982   -7.1967012    0.0000000  0.00    0.0004087   -0.0013381   -0.0000000
 C   -3.6457240   -2.3476676    0.0000000  0.00    0.0008319   -0.0003451   -0.0000000
 C   -2.8686357   -3.5033675    0.0000000  0.00    0.0003256    0.0015326   -0.0000000
 C   -2.9828029   -1.1252738    0.0000000  0.00    0.0008034   -0.0000419   -0.0000000
 C   -1.4186337   -5.8546622    0.0000000  0.00   -0.0012943   -0.0002658   -0.0000000
 C   -0.7151503   -7.0796945    0.0000000  0.00    0.0009846    0.0005503   -0.0000000
 C   -2.7679742   -8.3628810    0.0000000  0.00   -0.0000854    0.0015303   -0.0000000
 C   -1.4056629   -8.2985369    0.0000000  0.00   -0.0002427   -0.0011037   -0.0000000
 C   -1.4237579   -3.3408309    0.0000000  0.00   -0.0002952   -0.0004402   -0.0000000
 C   -0.7154357   -4.5787479    0.0000000  0.00    0.0011184    0.0006920   -0.0000000
 C   -1.5788573   -0.8035741    0.0000000  0.00    0.0001807    0.0001664   -0.0000000
 C   -0.7382245   -1.9947936    0.0000000  0.00   -0.0001023   -0.0006220   -0.0000000
 H   -8.8799919   -7.3589484    0.0000000  0.00    0.0006421    0.0004459   -0.0000000
 H   -7.5802847   -9.4658216    0.0000000  0.00   -0.0004155   -0.0007670   -0.0000000
 H   -5.1481583   -9.4158763    0.0000000  0.00    0.0003992    0.0004658   -0.0000000
 H   -8.9379617   -4.9285048    0.0000000  0.00    0.0003790   -0.0003012   -0.0000000
 H   -9.0194191   -2.5024650    0.0000000  0.00   -0.0001620    0.0002944   -0.0000000
 H   -3.2416855   -9.3331887    0.0000000  0.00   -0.0002304   -0.0011420   -0.0000000
 H   -0.8685740   -9.2315174    0.0000000  0.00   -0.0003931    0.0003673   -0.0000000
