148
 Energy =   -4513.4245185330
 C    7.1178195   -6.0989213    0.0000000  0.00   -0.0009367   -0.0004888   -0.0000000
 C    5.6845940   -6.0606975    0.0000000  0.00   -0.0004416   -0.0000415   -0.0000000
 C    7.7784600   -7.3469055    0.0000000  0.00    0.0002674   -0.0000658   -0.0000000
 C    4.9625524   -7.2689993    0.0000000  0.00    0.0001809   -0.0004120   -0.0000000
 C    7.0561233   -8.5178684    0.0000000  0.00    0.0004695   -0.0008330   -0.0000000
 C    5.6629328   -8.4827077    0.0000000  0.00   -0.0011461   -0.0001401   -0.0000000
 C    7.2024239   -3.6639319    0.0000000  0.00   -0.0011137   -0.0006977   -0.0000000
 C    5.7576369   -3.6320108    0.0000000  0.00   -0.0002491    0.0005971   -0.0000000
 C    7.8403993   -4.9024319    0.0000000  0.00   -0.0002033   -0.0000085   -0.0000000
 C    5.0014770   -4.8103092    0.0000000  0.00   -0.0004161   -0.0009756   -0.0000000
 C    7.2979744   -1.2275897    0.0000000  0.00   -0.0002710   -0.0001303   -0.0000000
 C    5.8582245   -1.2207081    0.0000000  0.00   -0.0007873   -0.0005705   -0.0000000
 C    7.9349076   -2.4681716    0.0000000  0.00   -0.0005054    0.0002155   -0.0000000
 C    5.0869538   -2.3972369    0.0000000  0.00   -0.0002253    0.0002749   -0.0000000
 C    7.9786300    0.0000000    0.0000000  0.00   -0.0008940   -0.0000000   -0.0000000
 C    5.1769413    0.0000000    0.0000000  0.00   -0.0017976   -0.0000000   -0.0000000
 C    3.5653633   -4.7404885    0.0000000  0.00   -0.0000825    0.0002290   -0.0000000
 C    2.8363407   -5.9473992    0.0000000  0.00    0.0008343   -0.0004718   -0.0000000
 C    3.5164631   -7.1981155    0.0000000  0.00    0.0005155    0.0011770   -0.0000000
 C    3.6486061   -2.3471540    0.0000000  0.00    0.0013402   -0.0014242   -0.0000000
 C    2.8677517   -3.5008081    0.0000000  0.00   -0.0006700   -0.0002295   -0.0000000
 C    3.7861010    0.0000000    0.0000000  0.00    0.0022954   -0.0000000   -0.0000000
 C    2.9863002   -1.1225522    0.0000000  0.00   -0.0000794    0.0017546   -0.0000000
 C    1.4163694   -5.8566580    0.0000000  0.00   -0.0007585    0.0004235   -0.0000000
 C    0.7133116   -7.0783048    0.0000000  0.00    0.0006878   -0.0001014   -0.0000000
 C    2.7613554   -8.3679121    0.0000000  0.00   -0.0003022   -0.0005062   -0.0000000
 C    1.4030623   -8.3014848    0.0000000  0.00   -0.0000563    0.0005969   -0.0000000
 C    1.4220230   -3.3375295    0.0000000  0.00    0.0007828   -0.0009056   -0.0000000
 C    0.7116738   -4.5770957    0.0000000  0.00    0.0011106   -0.0006443   -0.0000000
 C    1.5853436   -0.7953085    0.0000000  0.00    0.0005985   -0.0010934   -0.0000000
 C    0.7341148   -1.9984273    0.0000000  0.00    0.0011402   -0.0001260   -0.0000000
 H    8.8624404   -7.3647005    0.0000000  0.00   -0.0001729   -0.0006068   -0.0000000
 H    7.5667276   -9.4738314    0.0000000  0.00   -0.0017560   -0.0006573   -0.0000000
 H    5.1327596   -9.4236763    0.0000000  0.00   -0.0010253    0.0001553   -0.0000000
 H    8.9246362   -4.9395217    0.0000000  0.00   -0.0003912   -0.0014370   -0.0000000
 H    9.0184808   -2.5165041    0.0000000  0.00   -0.0009575   -0.0001933   -0.0000000
 H    9.0630717    0.0000000    0.0000000  0.00    0.0001283   -0.0000000   -0.0000000
 H    3.2361531   -9.3372225    0.0000000  0.00   -0.0006003    0.0001919   -0.0000000
 H    0.8644699   -9.2333836    0.0000000  0.00    0.0000715    0.0013356   -0.0000000
 C   -7.1178195    6.0989213    0.0000000  0.00    0.0009367    0.0004888   -0.0000000
 C   -5.6845940    6.0606975    0.0000000  0.00    0.0004416    0.0000415   -0.0000000
 C   -7.7784600    7.3469055    0.0000000  0.00   -0.0002674    0.0000658   -0.0000000
 C   -4.9625524    7.2689993    0.0000000  0.00   -0.0001809    0.0004120   -0.0000000
 C   -7.0561233    8.5178684    0.0000000  0.00   -0.0004695    0.0008330   -0.0000000
 C   -5.6629328    8.4827077    0.0000000  0.00    0.0011461    0.0001401   -0.0000000
 C   -7.2024239    3.6639319    0.0000000  0.00    0.0011137    0.0006977   -0.0000000
 C   -5.7576369    3.6320108    0.0000000  0.00    0.0002491   -0.0005971   -0.0000000
 C   -7.8403993    4.9024319    0.0000000  0.00    0.0002033    0.0000085   -0.0000000
 C   -5.0014770    4.8103092    0.0000000  0.00    0.0004161    0.0009756   -0.0000000
 C   -7.2979744    1.2275897    0.0000000  0.00    0.0002710    0.0001303   -0.0000000
 C   -5.8582245    1.2207081    0.0000000  0.00    0.0007873    0.0005705   -0.0000000
 C   -7.9349076    2.4681716    0.0000000  0.00    0.0005054   -0.0002155   -0.0000000
 C   -5.0869538    2.3972369    0.0000000  0.00    0.0002253   -0.0002749   -0.0000000
 C   -7.9786300    0.0000000    0.0000000  0.00    0.0008940   -0.0000000   -0.0000000
 C   -5.1769413    0.0000000    0.0000000  0.00    0.0017976   -0.0000000   -0.0000000
 C   -3.5653633    4.7404885    0.0000000  0.00    0.0000825   -0.0002290   -0.0000000
 C   -2.8363407    5.9473992    0.0000000  0.00   -0.0008343    0.0004718   -0.0000000
 C   -3.5164631    7.1981155    0.0000000  0.00   -0.0005155   -0.0011770   -0.0000000
 C   -3.6486061    2.3471540    0.0000000  0.00   -0.0013402    0.0014242   -0.0000000
 C   -2.8677517    3.5008081    0.0000000  0.00    0.0006700    0.0002295   -0.0000000
 C   -3.7861010    0.0000000    0.0000000  0.00   -0.0022954   -0.0000000   -0.0000000
 C   -2.9863002    1.1225522    0.0000000  0.00    0.0000794   -0.0017546   -0.0000000
 C   -1.4163694    5.8566580    0.0000000  0.00    0.0007585   -0.0004235   -0.0000000
 C   -0.7133116    7.0783048    0.0000000  0.00   -0.0006878    0.0001014   -0.0000000
 C   -2.7613554    8.3679121    0.0000000  0.00    0.0003022    0.0005062   -0.0000000
 C   -1.4030623    8.3014848    0.0000000  0.00    0.0000563   -0.0005969   -0.0000000
 C   -1.4220230    3.3375295    0.0000000  0.00   -0.0007828    0.0009056   -0.0000000
 C   -0.7116738    4.5770957    0.0000000  0.00   -0.0011106    0.0006443   -0.0000000
 C   -1.5853436    0.7953085    0.0000000  0.00   -0.0005985    0.0010934   -0.0000000
 C   -0.7341148    1.9984273    0.0000000  0.00   -0.0011402    0.0001260   -0.0000000
 H   -8.8624404    7.3647005    0.0000000  0.00    0.0001729    0.0006068   -0.0000000
 H   -7.5667276    9.4738314    0.0000000  0.00    0.0017560    0.0006573   -0.0000000
 H   -5.1327596    9.4236763    0.0000000  0.00    0.0010253   -0.0001553   -0.0000000
 H   -8.9246362    4.9395217    0.0000000  0.00    0.0003912    0.0014370   -0.0000000
 H   -9.0184808    2.5165041    0.0000000  0.00    0.0009575    0.0001933   -0.0000000
 H   -9.0630717    0.0000000    0.0000000  0.00   -0.0001283   -0.0000000   -0.0000000
 H   -3.2361531    9.3372225    0.0000000  0.00    0.0006003   -0.0001919   -0.0000000
 H   -0.8644699    9.2333836    0.0000000  0.00   -0.0000715   -0.0013356   -0.0000000
 C    7.1178195    6.0989213    0.0000000  0.00   -0.0009367    0.0004888   -0.0000000
 C    5.6845940    6.0606975    0.0000000  0.00   -0.0004416    0.0000415   -0.0000000
 C    7.7784600    7.3469055    0.0000000  0.00    0.0002674    0.0000658   -0.0000000
 C    4.9625524    7.2689993    0.0000000  0.00    0.0001809    0.0004120   -0.0000000
 C    7.0561233    8.5178684    0.0000000  0.00    0.0004695    0.0008330   -0.0000000
 C    5.6629328    8.4827077    0.0000000  0.00   -0.0011461    0.0001401   -0.0000000
 C    7.2024239    3.6639319    0.0000000  0.00   -0.0011137    0.0006977   -0.0000000
 C    5.7576369    3.6320108    0.0000000  0.00   -0.0002491   -0.0005971   -0.0000000
 C    7.8403993    4.9024319    0.0000000  0.00   -0.0002033    0.0000085   -0.0000000
 C    5.0014770    4.8103092    0.0000000  0.00   -0.0004161    0.0009756   -0.0000000
 C    7.2979744    1.2275897    0.0000000  0.00   -0.0002710    0.0001303   -0.0000000
 C    5.8582245    1.2207081    0.0000000  0.00   -0.0007873    0.0005705   -0.0000000
 C    7.9349076    2.4681716    0.0000000  0.00   -0.0005054   -0.0002155   -0.0000000
 C    5.0869538    2.3972369    0.0000000  0.00   -0.0002253   -0.0002749   -0.0000000
 C    3.5653633    4.7404885    0.0000000  0.00   -0.0000825   -0.0002290   -0.0000000
 C    2.8363407    5.9473992    0.0000000  0.00    0.0008343    0.0004718   -0.0000000
 C    3.5164631    7.1981155    0.0000000  0.00    0.0005155   -0.0011770   -0.0000000
 C    3.6486061    2.3471540    0.0000000  0.00    0.0013402    0.0014242   -0.0000000
 C    2.8677517    3.5008081    0.0000000  0.00   -0.0006700    0.0002295   -0.0000000
 C    2.9863002    1.1225522    0.0000000  0.00   -0.0000794   -0.0017546   -0.0000000
 C    1.4163694    5.8566580    0.0000000  0.00   -0.0007585   -0.0004235   -0.0000000
 C    0.7133116    7.0783048    0.0000000  0.00    0.0006878    0.0001014   -0.0000000
 C    2.7613554    8.3679121    0.0000000  0.00   -0.0003022    0.0005062   -0.0000000
 C    1.4030623    8.3014848    0.0000000  0.00   -0.0000563   -0.0005969   -0.0000000
 C    1.4220230    3.3375295    0.0000000  0.00    0.0007828    0.0009056   -0.0000000
 C    0.7116738    4.5770957    0.0000000  0.00    0.0011106    0.0006443   -0.0000000
 C    1.5853436    0.7953085    0.0000000  0.00    0.0005985    0.0010934   -0.0000000
 C    0.7341148    1.9984273    0.0000000  0.00    0.0011402    0.0001260   -0.0000000
 H    8.8624404    7.3647005    0.0000000  0.00   -0.0001729    0.0006068   -0.0000000
 H    7.5667276    9.4738314    0.0000000  0.00   -0.0017560    0.0006573   -0.0000000
 H    5.1327596    9.4236763    0.0000000  0.00   -0.0010253   -0.0001553   -0.0000000
 H    8.9246362    4.9395217    0.0000000  0.00   -0.0003912    0.0014370   -0.0000000
 H    9.0184808    2.5165041    0.0000000  0.00   -0.0009575    0.0001933   -0.0000000
 H    3.2361531    9.3372225    0.0000000  0.00   -0.0006003   -0.0001919   -0.0000000
 H    0.8644699    9.2333836    0.0000000  0.00    0.0000715   -0.0013356   -0.0000000
 C   -7.1178195   -6.0989213    0.0000000  0.00    0.0009367   -0.0004888   -0.0000000
 C   -5.6845940   -6.0606975    0.0000000  0.00    0.0004416   -0.0000415   -0.0000000
 C   -7.7784600   -7.3469055    0.0000000  0.00   -0.0002674   -0.0000658   -0.0000000
 C   -4.9625524   -7.2689993    0.0000000  0.00   -0.0001809   -0.0004120   -0.0000000
 C   -7.0561233   -8.5178684    0.0000000  0.00   -0.0004695   -0.0008330   -0.0000000
 C   -5.6629328   -8.4827077    0.0000000  0.00    0.0011461   -0.0001401   -0.0000000
 C   -7.2024239   -3.6639319    0.0000000  0.00    0.0011137   -0.0006977   -0.0000000
 C   -5.7576369   -3.6320108    0.0000000  0.00    0.0002491    0.0005971   -0.0000000
 C   -7.8403993   -4.9024319    0.0000000  0.00    0.0002033   -0.0000085   -0.0000000
 C   -5.0014770   -4.8103092    0.0000000  0.00    0.0004161   -0.0009756   -0.0000000
 C   -7.2979744   -1.2275897    0.0000000  0.00    0.0002710   -0.0001303   -0.0000000
 C   -5.8582245   -1.2207081    0.0000000  0.00    0.0007873   -0.0005705   -0.0000000
 C   -7.9349076   -2.4681716    0.0000000  0.00    0.0005054    0.0002155   -0.0000000
 C   -5.0869538   -2.3972369    0.0000000  0.00    0.0002253    0.0002749   -0.0000000
 C   -3.5653633   -4.7404885    0.0000000  0.00    0.0000825    0.0002290   -0.0000000
 C   -2.8363407   -5.9473992    0.0000000  0.00   -0.0008343   -0.0004718   -0.0000000
 C   -3.5164631   -7.1981155    0.0000000  0.00   -0.0005155    0.0011770   -0.0000000
 C   -3.6486061   -2.3471540    0.0000000  0.00   -0.0013402   -0.0014242   -0.0000000
 C   -2.8677517   -3.5008081    0.0000000  0.00    0.0006700   -0.0002295   -0.0000000
 C   -2.9863002   -1.1225522    0.0000000  0.00    0.0000794    0.0017546   -0.0000000
 C   -1.4163694   -5.8566580    0.0000000  0.00    0.0007585    0.0004235   -0.0000000
 C   -0.7133116   -7.0783048    0.0000000  0.00   -0.0006878   -0.0001014   -0.0000000
 C   -2.7613554   -8.3679121    0.0000000  0.00    0.0003022   -0.0005062   -0.0000000
 C   -1.4030623   -8.3014848    0.0000000  0.00    0.0000563    0.0005969   -0.0000000
 C   -1.4220230   -3.3375295    0.0000000  0.00   -0.0007828   -0.0009056   -0.0000000
 C   -0.7116738   -4.5770957    0.0000000  0.00   -0.0011106   -0.0006443   -0.0000000
 C   -1.5853436   -0.7953085    0.0000000  0.00   -0.0005985   -0.0010934   -0.0000000
 C   -0.7341148   -1.9984273    0.0000000  0.00   -0.0011402   -0.0001260   -0.0000000
 H   -8.8624404   -7.3647005    0.0000000  0.00    0.0001729   -0.0006068   -0.0000000
 H   -7.5667276   -9.4738314    0.0000000  0.00    0.0017560   -0.0006573   -0.0000000
 H   -5.1327596   -9.4236763    0.0000000  0.00    0.0010253    0.0001553   -0.0000000
 H   -8.9246362   -4.9395217    0.0000000  0.00    0.0003912   -0.0014370   -0.0000000
 H   -9.0184808   -2.5165041    0.0000000  0.00    0.0009575   -0.0001933   -0.0000000
 H   -3.2361531   -9.3372225    0.0000000  0.00    0.0006003    0.0001919   -0.0000000
 H   -0.8644699   -9.2333836    0.0000000  0.00   -0.0000715    0.0013356   -0.0000000
