148
 Energy =   -4513.4156925360
 C    7.1157460   -6.0974258    0.0000000  0.00    0.0005220   -0.0024166   -0.0000000
 C    5.6820929   -6.0562171    0.0000000  0.00   -0.0001910   -0.0004298   -0.0000000
 C    7.7760957   -7.3458009    0.0000000  0.00   -0.0000227   -0.0002464   -0.0000000
 C    4.9577434   -7.2676240    0.0000000  0.00    0.0019329   -0.0016228   -0.0000000
 C    7.0527194   -8.5157121    0.0000000  0.00   -0.0006750   -0.0017605   -0.0000000
 C    5.6595435   -8.4800723    0.0000000  0.00   -0.0015177   -0.0005142   -0.0000000
 C    7.1985837   -3.6668533    0.0000000  0.00   -0.0019073   -0.0030510   -0.0000000
 C    5.7563510   -3.6291425    0.0000000  0.00   -0.0033176    0.0033868   -0.0000000
 C    7.8396166   -4.9002952    0.0000000  0.00    0.0006232   -0.0004061   -0.0000000
 C    4.9968145   -4.8090086    0.0000000  0.00    0.0015680   -0.0031913   -0.0000000
 C    7.2922985   -1.2328249    0.0000000  0.00   -0.0001357   -0.0022006   -0.0000000
 C    5.8541623   -1.2214881    0.0000000  0.00   -0.0010324    0.0012259   -0.0000000
 C    7.9352195   -2.4633078    0.0000000  0.00   -0.0009685   -0.0026713   -0.0000000
 C    5.0847650   -2.3929435    0.0000000  0.00   -0.0013678   -0.0031041   -0.0000000
 C    7.9791128    0.0000000    0.0000000  0.00   -0.0001660   -0.0000000   -0.0000000
 C    5.1753520    0.0000000    0.0000000  0.00   -0.0006698   -0.0000000   -0.0000000
 C    3.5596612   -4.7390986    0.0000000  0.00   -0.0033831    0.0039018   -0.0000000
 C    2.8337134   -5.9477182    0.0000000  0.00    0.0042475   -0.0014989   -0.0000000
 C    3.5134102   -7.1962030    0.0000000  0.00    0.0005064    0.0012281   -0.0000000
 C    3.6442009   -2.3429216    0.0000000  0.00   -0.0054017    0.0079679   -0.0000000
 C    2.8627051   -3.4991481    0.0000000  0.00   -0.0014666   -0.0040059   -0.0000000
 C    3.7903822    0.0000000    0.0000000  0.00   -0.0017360   -0.0000000   -0.0000000
 C    2.9839777   -1.1210006    0.0000000  0.00    0.0004793   -0.0050738   -0.0000000
 C    1.4131973   -5.8585921    0.0000000  0.00   -0.0002570   -0.0020344   -0.0000000
 C    0.7107085   -7.0814353    0.0000000  0.00    0.0042392   -0.0015044   -0.0000000
 C    2.7584342   -8.3717461    0.0000000  0.00    0.0004902    0.0007088   -0.0000000
 C    1.4034051   -8.3091349    0.0000000  0.00    0.0011676    0.0029400   -0.0000000
 C    1.4181544   -3.3297066    0.0000000  0.00   -0.0061513   -0.0010955   -0.0000000
 C    0.7072674   -4.5829872    0.0000000  0.00    0.0030564    0.0002953   -0.0000000
 C    1.5827294   -0.7787099    0.0000000  0.00   -0.0043575   -0.0010113   -0.0000000
 C    0.7295422   -2.0021539    0.0000000  0.00    0.0020434    0.0026420   -0.0000000
 H    8.8599870   -7.3655792    0.0000000  0.00    0.0003311    0.0037178   -0.0000000
 H    7.5617484   -9.4726378    0.0000000  0.00   -0.0000819    0.0017505   -0.0000000
 H    5.1300788   -9.4212709    0.0000000  0.00   -0.0024564   -0.0008574   -0.0000000
 H    8.9236841   -4.9373516    0.0000000  0.00    0.0014192    0.0002215   -0.0000000
 H    9.0189745   -2.5103562    0.0000000  0.00   -0.0019607   -0.0010008   -0.0000000
 H    9.0639543    0.0000000    0.0000000  0.00   -0.0038974   -0.0000000   -0.0000000
 H    3.2360716   -9.3396544    0.0000000  0.00    0.0003563    0.0010029   -0.0000000
 H    0.8654664   -9.2411740    0.0000000  0.00   -0.0022308    0.0010254   -0.0000000
 C   -7.1157460    6.0974258    0.0000000  0.00   -0.0005220    0.0024166   -0.0000000
 C   -5.6820929    6.0562171    0.0000000  0.00    0.0001910    0.0004298   -0.0000000
 C   -7.7760957    7.3458009    0.0000000  0.00    0.0000227    0.0002464   -0.0000000
 C   -4.9577434    7.2676240    0.0000000  0.00   -0.0019329    0.0016228   -0.0000000
 C   -7.0527194    8.5157121    0.0000000  0.00    0.0006750    0.0017605   -0.0000000
 C   -5.6595435    8.4800723    0.0000000  0.00    0.0015177    0.0005142   -0.0000000
 C   -7.1985837    3.6668533    0.0000000  0.00    0.0019073    0.0030510   -0.0000000
 C   -5.7563510    3.6291425    0.0000000  0.00    0.0033176   -0.0033868   -0.0000000
 C   -7.8396166    4.9002952    0.0000000  0.00   -0.0006232    0.0004061   -0.0000000
 C   -4.9968145    4.8090086    0.0000000  0.00   -0.0015680    0.0031913   -0.0000000
 C   -7.2922985    1.2328249    0.0000000  0.00    0.0001357    0.0022006   -0.0000000
 C   -5.8541623    1.2214881    0.0000000  0.00    0.0010324   -0.0012259   -0.0000000
 C   -7.9352195    2.4633078    0.0000000  0.00    0.0009685    0.0026713   -0.0000000
 C   -5.0847650    2.3929435    0.0000000  0.00    0.0013678    0.0031041   -0.0000000
 C   -7.9791128    0.0000000    0.0000000  0.00    0.0001660   -0.0000000   -0.0000000
 C   -5.1753520    0.0000000    0.0000000  0.00    0.0006698   -0.0000000   -0.0000000
 C   -3.5596612    4.7390986    0.0000000  0.00    0.0033831   -0.0039018   -0.0000000
 C   -2.8337134    5.9477182    0.0000000  0.00   -0.0042475    0.0014989   -0.0000000
 C   -3.5134102    7.1962030    0.0000000  0.00   -0.0005064   -0.0012281   -0.0000000
 C   -3.6442009    2.3429216    0.0000000  0.00    0.0054017   -0.0079679   -0.0000000
 C   -2.8627051    3.4991481    0.0000000  0.00    0.0014666    0.0040059   -0.0000000
 C   -3.7903822    0.0000000    0.0000000  0.00    0.0017360   -0.0000000   -0.0000000
 C   -2.9839777    1.1210006    0.0000000  0.00   -0.0004793    0.0050738   -0.0000000
 C   -1.4131973    5.8585921    0.0000000  0.00    0.0002570    0.0020344   -0.0000000
 C   -0.7107085    7.0814353    0.0000000  0.00   -0.0042392    0.0015044   -0.0000000
 C   -2.7584342    8.3717461    0.0000000  0.00   -0.0004902   -0.0007088   -0.0000000
 C   -1.4034051    8.3091349    0.0000000  0.00   -0.0011676   -0.0029400   -0.0000000
 C   -1.4181544    3.3297066    0.0000000  0.00    0.0061513    0.0010955   -0.0000000
 C   -0.7072674    4.5829872    0.0000000  0.00   -0.0030564   -0.0002953   -0.0000000
 C   -1.5827294    0.7787099    0.0000000  0.00    0.0043575    0.0010113   -0.0000000
 C   -0.7295422    2.0021539    0.0000000  0.00   -0.0020434   -0.0026420   -0.0000000
 H   -8.8599870    7.3655792    0.0000000  0.00   -0.0003311   -0.0037178   -0.0000000
 H   -7.5617484    9.4726378    0.0000000  0.00    0.0000819   -0.0017505   -0.0000000
 H   -5.1300788    9.4212709    0.0000000  0.00    0.0024564    0.0008574   -0.0000000
 H   -8.9236841    4.9373516    0.0000000  0.00   -0.0014192   -0.0002215   -0.0000000
 H   -9.0189745    2.5103562    0.0000000  0.00    0.0019607    0.0010008   -0.0000000
 H   -9.0639543    0.0000000    0.0000000  0.00    0.0038974   -0.0000000   -0.0000000
 H   -3.2360716    9.3396544    0.0000000  0.00   -0.0003563   -0.0010029   -0.0000000
 H   -0.8654664    9.2411740    0.0000000  0.00    0.0022308   -0.0010254   -0.0000000
 C    7.1157460    6.0974258    0.0000000  0.00    0.0005220    0.0024166   -0.0000000
 C    5.6820929    6.0562171    0.0000000  0.00   -0.0001910    0.0004298   -0.0000000
 C    7.7760957    7.3458009    0.0000000  0.00   -0.0000227    0.0002464   -0.0000000
 C    4.9577434    7.2676240    0.0000000  0.00    0.0019329    0.0016228   -0.0000000
 C    7.0527194    8.5157121    0.0000000  0.00   -0.0006750    0.0017605   -0.0000000
 C    5.6595435    8.4800723    0.0000000  0.00   -0.0015177    0.0005142   -0.0000000
 C    7.1985837    3.6668533    0.0000000  0.00   -0.0019073    0.0030510   -0.0000000
 C    5.7563510    3.6291425    0.0000000  0.00   -0.0033176   -0.0033868   -0.0000000
 C    7.8396166    4.9002952    0.0000000  0.00    0.0006232    0.0004061   -0.0000000
 C    4.9968145    4.8090086    0.0000000  0.00    0.0015680    0.0031913   -0.0000000
 C    7.2922985    1.2328249    0.0000000  0.00   -0.0001357    0.0022006   -0.0000000
 C    5.8541623    1.2214881    0.0000000  0.00   -0.0010324   -0.0012259   -0.0000000
 C    7.9352195    2.4633078    0.0000000  0.00   -0.0009685    0.0026713   -0.0000000
 C    5.0847650    2.3929435    0.0000000  0.00   -0.0013678    0.0031041   -0.0000000
 C    3.5596612    4.7390986    0.0000000  0.00   -0.0033831   -0.0039018   -0.0000000
 C    2.8337134    5.9477182    0.0000000  0.00    0.0042475    0.0014989   -0.0000000
 C    3.5134102    7.1962030    0.0000000  0.00    0.0005064   -0.0012281   -0.0000000
 C    3.6442009    2.3429216    0.0000000  0.00   -0.0054017   -0.0079679   -0.0000000
 C    2.8627051    3.4991481    0.0000000  0.00   -0.0014666    0.0040059   -0.0000000
 C    2.9839777    1.1210006    0.0000000  0.00    0.0004793    0.0050738   -0.0000000
 C    1.4131973    5.8585921    0.0000000  0.00   -0.0002570    0.0020344   -0.0000000
 C    0.7107085    7.0814353    0.0000000  0.00    0.0042392    0.0015044   -0.0000000
 C    2.7584342    8.3717461    0.0000000  0.00    0.0004902   -0.0007088   -0.0000000
 C    1.4034051    8.3091349    0.0000000  0.00    0.0011676   -0.0029400   -0.0000000
 C    1.4181544    3.3297066    0.0000000  0.00   -0.0061513    0.0010955   -0.0000000
 C    0.7072674    4.5829872    0.0000000  0.00    0.0030564   -0.0002953   -0.0000000
 C    1.5827294    0.7787099    0.0000000  0.00   -0.0043575    0.0010113   -0.0000000
 C    0.7295422    2.0021539    0.0000000  0.00    0.0020434   -0.0026420   -0.0000000
 H    8.8599870    7.3655792    0.0000000  0.00    0.0003311   -0.0037178   -0.0000000
 H    7.5617484    9.4726378    0.0000000  0.00   -0.0000819   -0.0017505   -0.0000000
 H    5.1300788    9.4212709    0.0000000  0.00   -0.0024564    0.0008574   -0.0000000
 H    8.9236841    4.9373516    0.0000000  0.00    0.0014192   -0.0002215   -0.0000000
 H    9.0189745    2.5103562    0.0000000  0.00   -0.0019607    0.0010008   -0.0000000
 H    3.2360716    9.3396544    0.0000000  0.00    0.0003563   -0.0010029   -0.0000000
 H    0.8654664    9.2411740    0.0000000  0.00   -0.0022308   -0.0010254   -0.0000000
 C   -7.1157460   -6.0974258    0.0000000  0.00   -0.0005220   -0.0024166   -0.0000000
 C   -5.6820929   -6.0562171    0.0000000  0.00    0.0001910   -0.0004298   -0.0000000
 C   -7.7760957   -7.3458009    0.0000000  0.00    0.0000227   -0.0002464   -0.0000000
 C   -4.9577434   -7.2676240    0.0000000  0.00   -0.0019329   -0.0016228   -0.0000000
 C   -7.0527194   -8.5157121    0.0000000  0.00    0.0006750   -0.0017605   -0.0000000
 C   -5.6595435   -8.4800723    0.0000000  0.00    0.0015177   -0.0005142   -0.0000000
 C   -7.1985837   -3.6668533    0.0000000  0.00    0.0019073   -0.0030510   -0.0000000
 C   -5.7563510   -3.6291425    0.0000000  0.00    0.0033176    0.0033868   -0.0000000
 C   -7.8396166   -4.9002952    0.0000000  0.00   -0.0006232   -0.0004061   -0.0000000
 C   -4.9968145   -4.8090086    0.0000000  0.00   -0.0015680   -0.0031913   -0.0000000
 C   -7.2922985   -1.2328249    0.0000000  0.00    0.0001357   -0.0022006   -0.0000000
 C   -5.8541623   -1.2214881    0.0000000  0.00    0.0010324    0.0012259   -0.0000000
 C   -7.9352195   -2.4633078    0.0000000  0.00    0.0009685   -0.0026713   -0.0000000
 C   -5.0847650   -2.3929435    0.0000000  0.00    0.0013678   -0.0031041   -0.0000000
 C   -3.5596612   -4.7390986    0.0000000  0.00    0.0033831    0.0039018   -0.0000000
 C   -2.8337134   -5.9477182    0.0000000  0.00   -0.0042475   -0.0014989   -0.0000000
 C   -3.5134102   -7.1962030    0.0000000  0.00   -0.0005064    0.0012281   -0.0000000
 C   -3.6442009   -2.3429216    0.0000000  0.00    0.0054017    0.0079679   -0.0000000
 C   -2.8627051   -3.4991481    0.0000000  0.00    0.0014666   -0.0040059   -0.0000000
 C   -2.9839777   -1.1210006    0.0000000  0.00   -0.0004793   -0.0050738   -0.0000000
 C   -1.4131973   -5.8585921    0.0000000  0.00    0.0002570   -0.0020344   -0.0000000
 C   -0.7107085   -7.0814353    0.0000000  0.00   -0.0042392   -0.0015044   -0.0000000
 C   -2.7584342   -8.3717461    0.0000000  0.00   -0.0004902    0.0007088   -0.0000000
 C   -1.4034051   -8.3091349    0.0000000  0.00   -0.0011676    0.0029400   -0.0000000
 C   -1.4181544   -3.3297066    0.0000000  0.00    0.0061513   -0.0010955   -0.0000000
 C   -0.7072674   -4.5829872    0.0000000  0.00   -0.0030564    0.0002953   -0.0000000
 C   -1.5827294   -0.7787099    0.0000000  0.00    0.0043575   -0.0010113   -0.0000000
 C   -0.7295422   -2.0021539    0.0000000  0.00   -0.0020434    0.0026420   -0.0000000
 H   -8.8599870   -7.3655792    0.0000000  0.00   -0.0003311    0.0037178   -0.0000000
 H   -7.5617484   -9.4726378    0.0000000  0.00    0.0000819    0.0017505   -0.0000000
 H   -5.1300788   -9.4212709    0.0000000  0.00    0.0024564   -0.0008574   -0.0000000
 H   -8.9236841   -4.9373516    0.0000000  0.00   -0.0014192    0.0002215   -0.0000000
 H   -9.0189745   -2.5103562    0.0000000  0.00    0.0019607   -0.0010008   -0.0000000
 H   -3.2360716   -9.3396544    0.0000000  0.00   -0.0003563    0.0010029   -0.0000000
 H   -0.8654664   -9.2411740    0.0000000  0.00    0.0022308    0.0010254   -0.0000000
