148
 Energy =   -4513.0435248280
 C    7.1370315   -6.0797942    0.0000000  0.00    0.0001866   -0.0001090   -0.0000000
 C    5.6982565   -6.0454835    0.0000000  0.00    0.0003459   -0.0006394   -0.0000000
 C    7.8086965   -7.3260774    0.0000000  0.00    0.0002050   -0.0005741   -0.0000000
 C    4.9772431   -7.2584167    0.0000000  0.00    0.0001554    0.0004953   -0.0000000
 C    7.0872994   -8.4927006    0.0000000  0.00   -0.0008159   -0.0007002   -0.0000000
 C    5.6916760   -8.4628028    0.0000000  0.00    0.0004832    0.0006002   -0.0000000
 C    7.1998313   -3.6538515    0.0000000  0.00    0.0012610   -0.0003325   -0.0000000
 C    5.7549258   -3.6228570    0.0000000  0.00    0.0001277   -0.0022413   -0.0000000
 C    7.8576477   -4.8884964    0.0000000  0.00   -0.0015666   -0.0012345   -0.0000000
 C    5.0063844   -4.8035505    0.0000000  0.00   -0.0007640    0.0021214   -0.0000000
 C    7.2756679   -1.2263254    0.0000000  0.00    0.0004190   -0.0006353   -0.0000000
 C    5.8385114   -1.2178191    0.0000000  0.00   -0.0001395   -0.0003680   -0.0000000
 C    7.9328652   -2.4622436    0.0000000  0.00   -0.0002905   -0.0007721   -0.0000000
 C    5.0799638   -2.3931465    0.0000000  0.00   -0.0000561   -0.0001696   -0.0000000
 C    7.9628332    0.0000000    0.0000000  0.00   -0.0008064   -0.0000000   -0.0000000
 C    5.1602839    0.0000000    0.0000000  0.00    0.0003667   -0.0000000   -0.0000000
 C    3.5675729   -4.7465251    0.0000000  0.00    0.0020881   -0.0015806   -0.0000000
 C    2.8429968   -5.9458783    0.0000000  0.00   -0.0015275   -0.0005277   -0.0000000
 C    3.5274274   -7.2006867    0.0000000  0.00    0.0006978   -0.0007892   -0.0000000
 C    3.6432093   -2.3519150    0.0000000  0.00    0.0018510    0.0003579   -0.0000000
 C    2.8683780   -3.5071621    0.0000000  0.00   -0.0024685   -0.0002339   -0.0000000
 C    3.7689409    0.0000000    0.0000000  0.00    0.0022087   -0.0000000   -0.0000000
 C    2.9798195   -1.1317086    0.0000000  0.00   -0.0014687   -0.0013227   -0.0000000
 C    1.4197832   -5.8590420    0.0000000  0.00    0.0006575    0.0001905   -0.0000000
 C    0.7157908   -7.0869976    0.0000000  0.00    0.0006643   -0.0010032   -0.0000000
 C    2.7724323   -8.3640645    0.0000000  0.00   -0.0003354   -0.0011533   -0.0000000
 C    1.4079446   -8.3018491    0.0000000  0.00   -0.0012457    0.0001232   -0.0000000
 C    1.4290884   -3.3549073    0.0000000  0.00    0.0019979    0.0002063   -0.0000000
 C    0.7185874   -4.5866290    0.0000000  0.00   -0.0018041    0.0004498   -0.0000000
 C    1.5776948   -0.8359689    0.0000000  0.00    0.0003942   -0.0004301   -0.0000000
 C    0.7469394   -1.9997803    0.0000000  0.00   -0.0012235   -0.0007726   -0.0000000
 H    8.8969689   -7.3316119    0.0000000  0.00   -0.0002973    0.0008472   -0.0000000
 H    7.5950606   -9.4546672    0.0000000  0.00    0.0009029   -0.0001832   -0.0000000
 H    5.1654554   -9.4145604    0.0000000  0.00   -0.0001939    0.0001551   -0.0000000
 H    8.9503981   -4.9110149    0.0000000  0.00   -0.0013082    0.0014195   -0.0000000
 H    9.0240072   -2.5142549    0.0000000  0.00   -0.0001904   -0.0001190   -0.0000000
 H    9.0480198    0.0000000    0.0000000  0.00   -0.0006181   -0.0000000   -0.0000000
 H    3.2367636   -9.3489182    0.0000000  0.00   -0.0006505   -0.0003427   -0.0000000
 H    0.8798745   -9.2521424    0.0000000  0.00   -0.0017456   -0.0018097   -0.0000000
 C   -7.1370315    6.0797942    0.0000000  0.00   -0.0001866    0.0001090   -0.0000000
 C   -5.6982565    6.0454835    0.0000000  0.00   -0.0003459    0.0006394   -0.0000000
 C   -7.8086965    7.3260774    0.0000000  0.00   -0.0002050    0.0005741   -0.0000000
 C   -4.9772431    7.2584167    0.0000000  0.00   -0.0001554   -0.0004953   -0.0000000
 C   -7.0872994    8.4927006    0.0000000  0.00    0.0008159    0.0007002   -0.0000000
 C   -5.6916760    8.4628028    0.0000000  0.00   -0.0004832   -0.0006002   -0.0000000
 C   -7.1998313    3.6538515    0.0000000  0.00   -0.0012610    0.0003325   -0.0000000
 C   -5.7549258    3.6228570    0.0000000  0.00   -0.0001277    0.0022413   -0.0000000
 C   -7.8576477    4.8884964    0.0000000  0.00    0.0015666    0.0012345   -0.0000000
 C   -5.0063844    4.8035505    0.0000000  0.00    0.0007640   -0.0021214   -0.0000000
 C   -7.2756679    1.2263254    0.0000000  0.00   -0.0004190    0.0006353   -0.0000000
 C   -5.8385114    1.2178191    0.0000000  0.00    0.0001395    0.0003680   -0.0000000
 C   -7.9328652    2.4622436    0.0000000  0.00    0.0002905    0.0007721   -0.0000000
 C   -5.0799638    2.3931465    0.0000000  0.00    0.0000561    0.0001696   -0.0000000
 C   -7.9628332    0.0000000    0.0000000  0.00    0.0008064   -0.0000000   -0.0000000
 C   -5.1602839    0.0000000    0.0000000  0.00   -0.0003667   -0.0000000   -0.0000000
 C   -3.5675729    4.7465251    0.0000000  0.00   -0.0020881    0.0015806   -0.0000000
 C   -2.8429968    5.9458783    0.0000000  0.00    0.0015275    0.0005277   -0.0000000
 C   -3.5274274    7.2006867    0.0000000  0.00   -0.0006978    0.0007892   -0.0000000
 C   -3.6432093    2.3519150    0.0000000  0.00   -0.0018510   -0.0003579   -0.0000000
 C   -2.8683780    3.5071621    0.0000000  0.00    0.0024685    0.0002339   -0.0000000
 C   -3.7689409    0.0000000    0.0000000  0.00   -0.0022087   -0.0000000   -0.0000000
 C   -2.9798195    1.1317086    0.0000000  0.00    0.0014687    0.0013227   -0.0000000
 C   -1.4197832    5.8590420    0.0000000  0.00   -0.0006575   -0.0001905   -0.0000000
 C   -0.7157908    7.0869976    0.0000000  0.00   -0.0006643    0.0010032   -0.0000000
 C   -2.7724323    8.3640645    0.0000000  0.00    0.0003354    0.0011533   -0.0000000
 C   -1.4079446    8.3018491    0.0000000  0.00    0.0012457   -0.0001232   -0.0000000
 C   -1.4290884    3.3549073    0.0000000  0.00   -0.0019979   -0.0002063   -0.0000000
 C   -0.7185874    4.5866290    0.0000000  0.00    0.0018041   -0.0004498   -0.0000000
 C   -1.5776948    0.8359689    0.0000000  0.00   -0.0003942    0.0004301   -0.0000000
 C   -0.7469394    1.9997803    0.0000000  0.00    0.0012235    0.0007726   -0.0000000
 H   -8.8969689    7.3316119    0.0000000  0.00    0.0002973   -0.0008472   -0.0000000
 H   -7.5950606    9.4546672    0.0000000  0.00   -0.0009029    0.0001832   -0.0000000
 H   -5.1654554    9.4145604    0.0000000  0.00    0.0001939   -0.0001551   -0.0000000
 H   -8.9503981    4.9110149    0.0000000  0.00    0.0013082   -0.0014195   -0.0000000
 H   -9.0240072    2.5142549    0.0000000  0.00    0.0001904    0.0001190   -0.0000000
 H   -9.0480198    0.0000000    0.0000000  0.00    0.0006181   -0.0000000   -0.0000000
 H   -3.2367636    9.3489182    0.0000000  0.00    0.0006505    0.0003427   -0.0000000
 H   -0.8798745    9.2521424    0.0000000  0.00    0.0017456    0.0018097   -0.0000000
 C    7.1370315    6.0797942    0.0000000  0.00    0.0001866    0.0001090   -0.0000000
 C    5.6982565    6.0454835    0.0000000  0.00    0.0003459    0.0006394   -0.0000000
 C    7.8086965    7.3260774    0.0000000  0.00    0.0002050    0.0005741   -0.0000000
 C    4.9772431    7.2584167    0.0000000  0.00    0.0001554   -0.0004953   -0.0000000
 C    7.0872994    8.4927006    0.0000000  0.00   -0.0008159    0.0007002   -0.0000000
 C    5.6916760    8.4628028    0.0000000  0.00    0.0004832   -0.0006002   -0.0000000
 C    7.1998313    3.6538515    0.0000000  0.00    0.0012610    0.0003325   -0.0000000
 C    5.7549258    3.6228570    0.0000000  0.00    0.0001277    0.0022413   -0.0000000
 C    7.8576477    4.8884964    0.0000000  0.00   -0.0015666    0.0012345   -0.0000000
 C    5.0063844    4.8035505    0.0000000  0.00   -0.0007640   -0.0021214   -0.0000000
 C    7.2756679    1.2263254    0.0000000  0.00    0.0004190    0.0006353   -0.0000000
 C    5.8385114    1.2178191    0.0000000  0.00   -0.0001395    0.0003680   -0.0000000
 C    7.9328652    2.4622436    0.0000000  0.00   -0.0002905    0.0007721   -0.0000000
 C    5.0799638    2.3931465    0.0000000  0.00   -0.0000561    0.0001696   -0.0000000
 C    3.5675729    4.7465251    0.0000000  0.00    0.0020881    0.0015806   -0.0000000
 C    2.8429968    5.9458783    0.0000000  0.00   -0.0015275    0.0005277   -0.0000000
 C    3.5274274    7.2006867    0.0000000  0.00    0.0006978    0.0007892   -0.0000000
 C    3.6432093    2.3519150    0.0000000  0.00    0.0018510   -0.0003579   -0.0000000
 C    2.8683780    3.5071621    0.0000000  0.00   -0.0024685    0.0002339   -0.0000000
 C    2.9798195    1.1317086    0.0000000  0.00   -0.0014687    0.0013227   -0.0000000
 C    1.4197832    5.8590420    0.0000000  0.00    0.0006575   -0.0001905   -0.0000000
 C    0.7157908    7.0869976    0.0000000  0.00    0.0006643    0.0010032   -0.0000000
 C    2.7724323    8.3640645    0.0000000  0.00   -0.0003354    0.0011533   -0.0000000
 C    1.4079446    8.3018491    0.0000000  0.00   -0.0012457   -0.0001232   -0.0000000
 C    1.4290884    3.3549073    0.0000000  0.00    0.0019979   -0.0002063   -0.0000000
 C    0.7185874    4.5866290    0.0000000  0.00   -0.0018041   -0.0004498   -0.0000000
 C    1.5776948    0.8359689    0.0000000  0.00    0.0003942    0.0004301   -0.0000000
 C    0.7469394    1.9997803    0.0000000  0.00   -0.0012235    0.0007726   -0.0000000
 H    8.8969689    7.3316119    0.0000000  0.00   -0.0002973   -0.0008472   -0.0000000
 H    7.5950606    9.4546672    0.0000000  0.00    0.0009029    0.0001832   -0.0000000
 H    5.1654554    9.4145604    0.0000000  0.00   -0.0001939   -0.0001551   -0.0000000
 H    8.9503981    4.9110149    0.0000000  0.00   -0.0013082   -0.0014195   -0.0000000
 H    9.0240072    2.5142549    0.0000000  0.00   -0.0001904    0.0001190   -0.0000000
 H    3.2367636    9.3489182    0.0000000  0.00   -0.0006505    0.0003427   -0.0000000
 H    0.8798745    9.2521424    0.0000000  0.00   -0.0017456    0.0018097   -0.0000000
 C   -7.1370315   -6.0797942    0.0000000  0.00   -0.0001866   -0.0001090   -0.0000000
 C   -5.6982565   -6.0454835    0.0000000  0.00   -0.0003459   -0.0006394   -0.0000000
 C   -7.8086965   -7.3260774    0.0000000  0.00   -0.0002050   -0.0005741   -0.0000000
 C   -4.9772431   -7.2584167    0.0000000  0.00   -0.0001554    0.0004953   -0.0000000
 C   -7.0872994   -8.4927006    0.0000000  0.00    0.0008159   -0.0007002   -0.0000000
 C   -5.6916760   -8.4628028    0.0000000  0.00   -0.0004832    0.0006002   -0.0000000
 C   -7.1998313   -3.6538515    0.0000000  0.00   -0.0012610   -0.0003325   -0.0000000
 C   -5.7549258   -3.6228570    0.0000000  0.00   -0.0001277   -0.0022413   -0.0000000
 C   -7.8576477   -4.8884964    0.0000000  0.00    0.0015666   -0.0012345   -0.0000000
 C   -5.0063844   -4.8035505    0.0000000  0.00    0.0007640    0.0021214   -0.0000000
 C   -7.2756679   -1.2263254    0.0000000  0.00   -0.0004190   -0.0006353   -0.0000000
 C   -5.8385114   -1.2178191    0.0000000  0.00    0.0001395   -0.0003680   -0.0000000
 C   -7.9328652   -2.4622436    0.0000000  0.00    0.0002905   -0.0007721   -0.0000000
 C   -5.0799638   -2.3931465    0.0000000  0.00    0.0000561   -0.0001696   -0.0000000
 C   -3.5675729   -4.7465251    0.0000000  0.00   -0.0020881   -0.0015806   -0.0000000
 C   -2.8429968   -5.9458783    0.0000000  0.00    0.0015275   -0.0005277   -0.0000000
 C   -3.5274274   -7.2006867    0.0000000  0.00   -0.0006978   -0.0007892   -0.0000000
 C   -3.6432093   -2.3519150    0.0000000  0.00   -0.0018510    0.0003579   -0.0000000
 C   -2.8683780   -3.5071621    0.0000000  0.00    0.0024685   -0.0002339   -0.0000000
 C   -2.9798195   -1.1317086    0.0000000  0.00    0.0014687   -0.0013227   -0.0000000
 C   -1.4197832   -5.8590420    0.0000000  0.00   -0.0006575    0.0001905   -0.0000000
 C   -0.7157908   -7.0869976    0.0000000  0.00   -0.0006643   -0.0010032   -0.0000000
 C   -2.7724323   -8.3640645    0.0000000  0.00    0.0003354   -0.0011533   -0.0000000
 C   -1.4079446   -8.3018491    0.0000000  0.00    0.0012457    0.0001232   -0.0000000
 C   -1.4290884   -3.3549073    0.0000000  0.00   -0.0019979    0.0002063   -0.0000000
 C   -0.7185874   -4.5866290    0.0000000  0.00    0.0018041    0.0004498   -0.0000000
 C   -1.5776948   -0.8359689    0.0000000  0.00   -0.0003942   -0.0004301   -0.0000000
 C   -0.7469394   -1.9997803    0.0000000  0.00    0.0012235   -0.0007726   -0.0000000
 H   -8.8969689   -7.3316119    0.0000000  0.00    0.0002973    0.0008472   -0.0000000
 H   -7.5950606   -9.4546672    0.0000000  0.00   -0.0009029   -0.0001832   -0.0000000
 H   -5.1654554   -9.4145604    0.0000000  0.00    0.0001939    0.0001551   -0.0000000
 H   -8.9503981   -4.9110149    0.0000000  0.00    0.0013082    0.0014195   -0.0000000
 H   -9.0240072   -2.5142549    0.0000000  0.00    0.0001904   -0.0001190   -0.0000000
 H   -3.2367636   -9.3489182    0.0000000  0.00    0.0006505   -0.0003427   -0.0000000
 H   -0.8798745   -9.2521424    0.0000000  0.00    0.0017456   -0.0018097   -0.0000000
