148
 Energy =   -4513.4245341400
 C    7.1152615   -6.0991141    0.0000000  0.00    0.0009064    0.0015873   -0.0000000
 C    5.6818715   -6.0576267    0.0000000  0.00    0.0013430    0.0005556   -0.0000000
 C    7.7756889   -7.3449054    0.0000000  0.00   -0.0012157   -0.0009754   -0.0000000
 C    4.9583118   -7.2677186    0.0000000  0.00    0.0005559   -0.0011450   -0.0000000
 C    7.0520035   -8.5168847    0.0000000  0.00   -0.0004584   -0.0010016   -0.0000000
 C    5.6606507   -8.4819509    0.0000000  0.00    0.0007945    0.0004284   -0.0000000
 C    7.1982653   -3.6648246    0.0000000  0.00    0.0009989    0.0005540   -0.0000000
 C    5.7527606   -3.6273778    0.0000000  0.00   -0.0008881   -0.0016015   -0.0000000
 C    7.8401049   -4.9003406    0.0000000  0.00   -0.0003829    0.0001509   -0.0000000
 C    4.9948182   -4.8085221    0.0000000  0.00    0.0012344    0.0000340   -0.0000000
 C    7.2866166   -1.2282299    0.0000000  0.00   -0.0006527   -0.0001034   -0.0000000
 C    5.8523491   -1.2190732    0.0000000  0.00    0.0000289    0.0011817   -0.0000000
 C    7.9326832   -2.4660699    0.0000000  0.00    0.0002982    0.0016893   -0.0000000
 C    5.0813026   -2.3940619    0.0000000  0.00   -0.0006495   -0.0018715   -0.0000000
 C    7.9717633    0.0000000    0.0000000  0.00   -0.0007157   -0.0000000   -0.0000000
 C    5.1737472    0.0000000    0.0000000  0.00   -0.0011879   -0.0000000   -0.0000000
 C    3.5600525   -4.7393241    0.0000000  0.00   -0.0005789   -0.0004572   -0.0000000
 C    2.8343024   -5.9487092    0.0000000  0.00   -0.0027698   -0.0009165   -0.0000000
 C    3.5140605   -7.1963788    0.0000000  0.00   -0.0012393   -0.0002573   -0.0000000
 C    3.6421828   -2.3438387    0.0000000  0.00    0.0004228    0.0004170   -0.0000000
 C    2.8622684   -3.4996172    0.0000000  0.00   -0.0000462   -0.0010736   -0.0000000
 C    3.7860394    0.0000000    0.0000000  0.00   -0.0037198   -0.0000000   -0.0000000
 C    2.9804664   -1.1204674    0.0000000  0.00   -0.0008791   -0.0010268   -0.0000000
 C    1.4138454   -5.8597725    0.0000000  0.00    0.0000273    0.0007065   -0.0000000
 C    0.7111369   -7.0821860    0.0000000  0.00   -0.0013733   -0.0011584   -0.0000000
 C    2.7590879   -8.3720422    0.0000000  0.00   -0.0004089    0.0011865   -0.0000000
 C    1.4040167   -8.3093787    0.0000000  0.00   -0.0012623   -0.0015132   -0.0000000
 C    1.4169608   -3.3306254    0.0000000  0.00    0.0008816    0.0008828   -0.0000000
 C    0.7072819   -4.5841711    0.0000000  0.00    0.0000644    0.0013167   -0.0000000
 C    1.5799936   -0.7793324    0.0000000  0.00   -0.0010531   -0.0007002   -0.0000000
 C    0.7289360   -2.0035495    0.0000000  0.00   -0.0000097    0.0009017   -0.0000000
 H    8.8597254   -7.3627919    0.0000000  0.00   -0.0017120   -0.0010393   -0.0000000
 H    7.5621325   -9.4729991    0.0000000  0.00    0.0011307   -0.0017339   -0.0000000
 H    5.1302949   -9.4227798    0.0000000  0.00    0.0002974    0.0004238   -0.0000000
 H    8.9241367   -4.9378302    0.0000000  0.00    0.0008233    0.0020505   -0.0000000
 H    9.0164734   -2.5107205    0.0000000  0.00   -0.0005739   -0.0029701   -0.0000000
 H    9.0565886    0.0000000    0.0000000  0.00   -0.0006905   -0.0000000   -0.0000000
 H    3.2372077   -9.3396901    0.0000000  0.00   -0.0013767    0.0000697   -0.0000000
 H    0.8656817   -9.2411306    0.0000000  0.00   -0.0015589   -0.0012823   -0.0000000
 C   -7.1152615    6.0991141    0.0000000  0.00   -0.0009064   -0.0015873   -0.0000000
 C   -5.6818715    6.0576267    0.0000000  0.00   -0.0013430   -0.0005556   -0.0000000
 C   -7.7756889    7.3449054    0.0000000  0.00    0.0012157    0.0009754   -0.0000000
 C   -4.9583118    7.2677186    0.0000000  0.00   -0.0005559    0.0011450   -0.0000000
 C   -7.0520035    8.5168847    0.0000000  0.00    0.0004584    0.0010016   -0.0000000
 C   -5.6606507    8.4819509    0.0000000  0.00   -0.0007945   -0.0004284   -0.0000000
 C   -7.1982653    3.6648246    0.0000000  0.00   -0.0009989   -0.0005540   -0.0000000
 C   -5.7527606    3.6273778    0.0000000  0.00    0.0008881    0.0016015   -0.0000000
 C   -7.8401049    4.9003406    0.0000000  0.00    0.0003829   -0.0001509   -0.0000000
 C   -4.9948182    4.8085221    0.0000000  0.00   -0.0012344   -0.0000340   -0.0000000
 C   -7.2866166    1.2282299    0.0000000  0.00    0.0006527    0.0001034   -0.0000000
 C   -5.8523491    1.2190732    0.0000000  0.00   -0.0000289   -0.0011817   -0.0000000
 C   -7.9326832    2.4660699    0.0000000  0.00   -0.0002982   -0.0016893   -0.0000000
 C   -5.0813026    2.3940619    0.0000000  0.00    0.0006495    0.0018715   -0.0000000
 C   -7.9717633    0.0000000    0.0000000  0.00    0.0007157   -0.0000000   -0.0000000
 C   -5.1737472    0.0000000    0.0000000  0.00    0.0011879   -0.0000000   -0.0000000
 C   -3.5600525    4.7393241    0.0000000  0.00    0.0005789    0.0004572   -0.0000000
 C   -2.8343024    5.9487092    0.0000000  0.00    0.0027698    0.0009165   -0.0000000
 C   -3.5140605    7.1963788    0.0000000  0.00    0.0012393    0.0002573   -0.0000000
 C   -3.6421828    2.3438387    0.0000000  0.00   -0.0004228   -0.0004170   -0.0000000
 C   -2.8622684    3.4996172    0.0000000  0.00    0.0000462    0.0010736   -0.0000000
 C   -3.7860394    0.0000000    0.0000000  0.00    0.0037198   -0.0000000   -0.0000000
 C   -2.9804664    1.1204674    0.0000000  0.00    0.0008791    0.0010268   -0.0000000
 C   -1.4138454    5.8597725    0.0000000  0.00   -0.0000273   -0.0007065   -0.0000000
 C   -0.7111369    7.0821860    0.0000000  0.00    0.0013733    0.0011584   -0.0000000
 C   -2.7590879    8.3720422    0.0000000  0.00    0.0004089   -0.0011865   -0.0000000
 C   -1.4040167    8.3093787    0.0000000  0.00    0.0012623    0.0015132   -0.0000000
 C   -1.4169608    3.3306254    0.0000000  0.00   -0.0008816   -0.0008828   -0.0000000
 C   -0.7072819    4.5841711    0.0000000  0.00   -0.0000644   -0.0013167   -0.0000000
 C   -1.5799936    0.7793324    0.0000000  0.00    0.0010531    0.0007002   -0.0000000
 C   -0.7289360    2.0035495    0.0000000  0.00    0.0000097   -0.0009017   -0.0000000
 H   -8.8597254    7.3627919    0.0000000  0.00    0.0017120    0.0010393   -0.0000000
 H   -7.5621325    9.4729991    0.0000000  0.00   -0.0011307    0.0017339   -0.0000000
 H   -5.1302949    9.4227798    0.0000000  0.00   -0.0002974   -0.0004238   -0.0000000
 H   -8.9241367    4.9378302    0.0000000  0.00   -0.0008233   -0.0020505   -0.0000000
 H   -9.0164734    2.5107205    0.0000000  0.00    0.0005739    0.0029701   -0.0000000
 H   -9.0565886    0.0000000    0.0000000  0.00    0.0006905   -0.0000000   -0.0000000
 H   -3.2372077    9.3396901    0.0000000  0.00    0.0013767   -0.0000697   -0.0000000
 H   -0.8656817    9.2411306    0.0000000  0.00    0.0015589    0.0012823   -0.0000000
 C    7.1152615    6.0991141    0.0000000  0.00    0.0009064   -0.0015873   -0.0000000
 C    5.6818715    6.0576267    0.0000000  0.00    0.0013430   -0.0005556   -0.0000000
 C    7.7756889    7.3449054    0.0000000  0.00   -0.0012157    0.0009754   -0.0000000
 C    4.9583118    7.2677186    0.0000000  0.00    0.0005559    0.0011450   -0.0000000
 C    7.0520035    8.5168847    0.0000000  0.00   -0.0004584    0.0010016   -0.0000000
 C    5.6606507    8.4819509    0.0000000  0.00    0.0007945   -0.0004284   -0.0000000
 C    7.1982653    3.6648246    0.0000000  0.00    0.0009989   -0.0005540   -0.0000000
 C    5.7527606    3.6273778    0.0000000  0.00   -0.0008881    0.0016015   -0.0000000
 C    7.8401049    4.9003406    0.0000000  0.00   -0.0003829   -0.0001509   -0.0000000
 C    4.9948182    4.8085221    0.0000000  0.00    0.0012344   -0.0000340   -0.0000000
 C    7.2866166    1.2282299    0.0000000  0.00   -0.0006527    0.0001034   -0.0000000
 C    5.8523491    1.2190732    0.0000000  0.00    0.0000289   -0.0011817   -0.0000000
 C    7.9326832    2.4660699    0.0000000  0.00    0.0002982   -0.0016893   -0.0000000
 C    5.0813026    2.3940619    0.0000000  0.00   -0.0006495    0.0018715   -0.0000000
 C    3.5600525    4.7393241    0.0000000  0.00   -0.0005789    0.0004572   -0.0000000
 C    2.8343024    5.9487092    0.0000000  0.00   -0.0027698    0.0009165   -0.0000000
 C    3.5140605    7.1963788    0.0000000  0.00   -0.0012393    0.0002573   -0.0000000
 C    3.6421828    2.3438387    0.0000000  0.00    0.0004228   -0.0004170   -0.0000000
 C    2.8622684    3.4996172    0.0000000  0.00   -0.0000462    0.0010736   -0.0000000
 C    2.9804664    1.1204674    0.0000000  0.00   -0.0008791    0.0010268   -0.0000000
 C    1.4138454    5.8597725    0.0000000  0.00    0.0000273   -0.0007065   -0.0000000
 C    0.7111369    7.0821860    0.0000000  0.00   -0.0013733    0.0011584   -0.0000000
 C    2.7590879    8.3720422    0.0000000  0.00   -0.0004089   -0.0011865   -0.0000000
 C    1.4040167    8.3093787    0.0000000  0.00   -0.0012623    0.0015132   -0.0000000
 C    1.4169608    3.3306254    0.0000000  0.00    0.0008816   -0.0008828   -0.0000000
 C    0.7072819    4.5841711    0.0000000  0.00    0.0000644   -0.0013167   -0.0000000
 C    1.5799936    0.7793324    0.0000000  0.00   -0.0010531    0.0007002   -0.0000000
 C    0.7289360    2.0035495    0.0000000  0.00   -0.0000097   -0.0009017   -0.0000000
 H    8.8597254    7.3627919    0.0000000  0.00   -0.0017120    0.0010393   -0.0000000
 H    7.5621325    9.4729991    0.0000000  0.00    0.0011307    0.0017339   -0.0000000
 H    5.1302949    9.4227798    0.0000000  0.00    0.0002974   -0.0004238   -0.0000000
 H    8.9241367    4.9378302    0.0000000  0.00    0.0008233   -0.0020505   -0.0000000
 H    9.0164734    2.5107205    0.0000000  0.00   -0.0005739    0.0029701   -0.0000000
 H    3.2372077    9.3396901    0.0000000  0.00   -0.0013767   -0.0000697   -0.0000000
 H    0.8656817    9.2411306    0.0000000  0.00   -0.0015589    0.0012823   -0.0000000
 C   -7.1152615   -6.0991141    0.0000000  0.00   -0.0009064    0.0015873   -0.0000000
 C   -5.6818715   -6.0576267    0.0000000  0.00   -0.0013430    0.0005556   -0.0000000
 C   -7.7756889   -7.3449054    0.0000000  0.00    0.0012157   -0.0009754   -0.0000000
 C   -4.9583118   -7.2677186    0.0000000  0.00   -0.0005559   -0.0011450   -0.0000000
 C   -7.0520035   -8.5168847    0.0000000  0.00    0.0004584   -0.0010016   -0.0000000
 C   -5.6606507   -8.4819509    0.0000000  0.00   -0.0007945    0.0004284   -0.0000000
 C   -7.1982653   -3.6648246    0.0000000  0.00   -0.0009989    0.0005540   -0.0000000
 C   -5.7527606   -3.6273778    0.0000000  0.00    0.0008881   -0.0016015   -0.0000000
 C   -7.8401049   -4.9003406    0.0000000  0.00    0.0003829    0.0001509   -0.0000000
 C   -4.9948182   -4.8085221    0.0000000  0.00   -0.0012344    0.0000340   -0.0000000
 C   -7.2866166   -1.2282299    0.0000000  0.00    0.0006527   -0.0001034   -0.0000000
 C   -5.8523491   -1.2190732    0.0000000  0.00   -0.0000289    0.0011817   -0.0000000
 C   -7.9326832   -2.4660699    0.0000000  0.00   -0.0002982    0.0016893   -0.0000000
 C   -5.0813026   -2.3940619    0.0000000  0.00    0.0006495   -0.0018715   -0.0000000
 C   -3.5600525   -4.7393241    0.0000000  0.00    0.0005789   -0.0004572   -0.0000000
 C   -2.8343024   -5.9487092    0.0000000  0.00    0.0027698   -0.0009165   -0.0000000
 C   -3.5140605   -7.1963788    0.0000000  0.00    0.0012393   -0.0002573   -0.0000000
 C   -3.6421828   -2.3438387    0.0000000  0.00   -0.0004228    0.0004170   -0.0000000
 C   -2.8622684   -3.4996172    0.0000000  0.00    0.0000462   -0.0010736   -0.0000000
 C   -2.9804664   -1.1204674    0.0000000  0.00    0.0008791   -0.0010268   -0.0000000
 C   -1.4138454   -5.8597725    0.0000000  0.00   -0.0000273    0.0007065   -0.0000000
 C   -0.7111369   -7.0821860    0.0000000  0.00    0.0013733   -0.0011584   -0.0000000
 C   -2.7590879   -8.3720422    0.0000000  0.00    0.0004089    0.0011865   -0.0000000
 C   -1.4040167   -8.3093787    0.0000000  0.00    0.0012623   -0.0015132   -0.0000000
 C   -1.4169608   -3.3306254    0.0000000  0.00   -0.0008816    0.0008828   -0.0000000
 C   -0.7072819   -4.5841711    0.0000000  0.00   -0.0000644    0.0013167   -0.0000000
 C   -1.5799936   -0.7793324    0.0000000  0.00    0.0010531   -0.0007002   -0.0000000
 C   -0.7289360   -2.0035495    0.0000000  0.00    0.0000097    0.0009017   -0.0000000
 H   -8.8597254   -7.3627919    0.0000000  0.00    0.0017120   -0.0010393   -0.0000000
 H   -7.5621325   -9.4729991    0.0000000  0.00   -0.0011307   -0.0017339   -0.0000000
 H   -5.1302949   -9.4227798    0.0000000  0.00   -0.0002974    0.0004238   -0.0000000
 H   -8.9241367   -4.9378302    0.0000000  0.00   -0.0008233    0.0020505   -0.0000000
 H   -9.0164734   -2.5107205    0.0000000  0.00    0.0005739   -0.0029701   -0.0000000
 H   -3.2372077   -9.3396901    0.0000000  0.00    0.0013767    0.0000697   -0.0000000
 H   -0.8656817   -9.2411306    0.0000000  0.00    0.0015589   -0.0012823   -0.0000000
