148
 Energy =   -4513.3971083490
 C    7.1091136   -6.1075126    0.0000000  0.00    0.0013611    0.0007088   -0.0000000
 C    5.6761111   -6.0702368    0.0000000  0.00   -0.0002321    0.0008208   -0.0000000
 C    7.7710483   -7.3521137    0.0000000  0.00   -0.0003910   -0.0012437   -0.0000000
 C    4.9531663   -7.2796818    0.0000000  0.00    0.0006604    0.0003776   -0.0000000
 C    7.0483140   -8.5279383    0.0000000  0.00    0.0012245    0.0024118   -0.0000000
 C    5.6600235   -8.4973621    0.0000000  0.00   -0.0004636   -0.0023323   -0.0000000
 C    7.1861675   -3.6714789    0.0000000  0.00    0.0005716   -0.0021495   -0.0000000
 C    5.7448691   -3.6351166    0.0000000  0.00   -0.0005585   -0.0001644   -0.0000000
 C    7.8296932   -4.9048605    0.0000000  0.00   -0.0000888    0.0003226   -0.0000000
 C    4.9873488   -4.8207740    0.0000000  0.00   -0.0002475   -0.0011904   -0.0000000
 C    7.2724371   -1.2319146    0.0000000  0.00   -0.0015383   -0.0006148   -0.0000000
 C    5.8376678   -1.2222512    0.0000000  0.00   -0.0002584   -0.0014261   -0.0000000
 C    7.9186896   -2.4666680    0.0000000  0.00   -0.0002313    0.0003088   -0.0000000
 C    5.0723436   -2.4029480    0.0000000  0.00    0.0000437   -0.0004800   -0.0000000
 C    7.9572422    0.0000000    0.0000000  0.00   -0.0009277   -0.0000000   -0.0000000
 C    5.1605087    0.0000000    0.0000000  0.00   -0.0026472   -0.0000000   -0.0000000
 C    3.5600669   -4.7572582    0.0000000  0.00    0.0004250    0.0003338   -0.0000000
 C    2.8336681   -5.9634008    0.0000000  0.00    0.0010292    0.0010000   -0.0000000
 C    3.5142390   -7.2119129    0.0000000  0.00    0.0012556   -0.0004999   -0.0000000
 C    3.6362823   -2.3565301    0.0000000  0.00    0.0008834   -0.0016110   -0.0000000
 C    2.8577905   -3.5077168    0.0000000  0.00   -0.0016014   -0.0002702   -0.0000000
 C    3.7714489    0.0000000    0.0000000  0.00    0.0031979   -0.0000000   -0.0000000
 C    2.9723816   -1.1279462    0.0000000  0.00   -0.0018348   -0.0008835   -0.0000000
 C    1.4118756   -5.8761988    0.0000000  0.00    0.0001559    0.0007449   -0.0000000
 C    0.7088631   -7.0959100    0.0000000  0.00    0.0013071    0.0005156   -0.0000000
 C    2.7558824   -8.3912680    0.0000000  0.00    0.0004124    0.0006367   -0.0000000
 C    1.4044556   -8.3292792    0.0000000  0.00   -0.0006677   -0.0007224   -0.0000000
 C    1.4214441   -3.3467116    0.0000000  0.00    0.0007338    0.0012304   -0.0000000
 C    0.7053825   -4.5989191    0.0000000  0.00   -0.0010945   -0.0000759   -0.0000000
 C    1.5823480   -0.8126339    0.0000000  0.00    0.0014753   -0.0003421   -0.0000000
 C    0.7347506   -2.0150122    0.0000000  0.00    0.0017883    0.0001173   -0.0000000
 H    8.8549221   -7.3698427    0.0000000  0.00    0.0004585    0.0012410   -0.0000000
 H    7.5619548   -9.4824461    0.0000000  0.00   -0.0001454    0.0015589   -0.0000000
 H    5.1300265   -9.4381543    0.0000000  0.00    0.0014324   -0.0011643   -0.0000000
 H    8.9138848   -4.9394707    0.0000000  0.00    0.0003943    0.0011273   -0.0000000
 H    9.0024347   -2.5099078    0.0000000  0.00    0.0009748   -0.0015509   -0.0000000
 H    9.0418973    0.0000000    0.0000000  0.00    0.0011122   -0.0000000   -0.0000000
 H    3.2346891   -9.3585280    0.0000000  0.00    0.0011528    0.0001325   -0.0000000
 H    0.8645143   -9.2597634    0.0000000  0.00   -0.0008552   -0.0020987   -0.0000000
 C   -7.1091136    6.1075126    0.0000000  0.00   -0.0013611   -0.0007088   -0.0000000
 C   -5.6761111    6.0702368    0.0000000  0.00    0.0002321   -0.0008208   -0.0000000
 C   -7.7710483    7.3521137    0.0000000  0.00    0.0003910    0.0012437   -0.0000000
 C   -4.9531663    7.2796818    0.0000000  0.00   -0.0006604   -0.0003776   -0.0000000
 C   -7.0483140    8.5279383    0.0000000  0.00   -0.0012245   -0.0024118   -0.0000000
 C   -5.6600235    8.4973621    0.0000000  0.00    0.0004636    0.0023323   -0.0000000
 C   -7.1861675    3.6714789    0.0000000  0.00   -0.0005716    0.0021495   -0.0000000
 C   -5.7448691    3.6351166    0.0000000  0.00    0.0005585    0.0001644   -0.0000000
 C   -7.8296932    4.9048605    0.0000000  0.00    0.0000888   -0.0003226   -0.0000000
 C   -4.9873488    4.8207740    0.0000000  0.00    0.0002475    0.0011904   -0.0000000
 C   -7.2724371    1.2319146    0.0000000  0.00    0.0015383    0.0006148   -0.0000000
 C   -5.8376678    1.2222512    0.0000000  0.00    0.0002584    0.0014261   -0.0000000
 C   -7.9186896    2.4666680    0.0000000  0.00    0.0002313   -0.0003088   -0.0000000
 C   -5.0723436    2.4029480    0.0000000  0.00   -0.0000437    0.0004800   -0.0000000
 C   -7.9572422    0.0000000    0.0000000  0.00    0.0009277   -0.0000000   -0.0000000
 C   -5.1605087    0.0000000    0.0000000  0.00    0.0026472   -0.0000000   -0.0000000
 C   -3.5600669    4.7572582    0.0000000  0.00   -0.0004250   -0.0003338   -0.0000000
 C   -2.8336681    5.9634008    0.0000000  0.00   -0.0010292   -0.0010000   -0.0000000
 C   -3.5142390    7.2119129    0.0000000  0.00   -0.0012556    0.0004999   -0.0000000
 C   -3.6362823    2.3565301    0.0000000  0.00   -0.0008834    0.0016110   -0.0000000
 C   -2.8577905    3.5077168    0.0000000  0.00    0.0016014    0.0002702   -0.0000000
 C   -3.7714489    0.0000000    0.0000000  0.00   -0.0031979   -0.0000000   -0.0000000
 C   -2.9723816    1.1279462    0.0000000  0.00    0.0018348    0.0008835   -0.0000000
 C   -1.4118756    5.8761988    0.0000000  0.00   -0.0001559   -0.0007449   -0.0000000
 C   -0.7088631    7.0959100    0.0000000  0.00   -0.0013071   -0.0005156   -0.0000000
 C   -2.7558824    8.3912680    0.0000000  0.00   -0.0004124   -0.0006367   -0.0000000
 C   -1.4044556    8.3292792    0.0000000  0.00    0.0006677    0.0007224   -0.0000000
 C   -1.4214441    3.3467116    0.0000000  0.00   -0.0007338   -0.0012304   -0.0000000
 C   -0.7053825    4.5989191    0.0000000  0.00    0.0010945    0.0000759   -0.0000000
 C   -1.5823480    0.8126339    0.0000000  0.00   -0.0014753    0.0003421   -0.0000000
 C   -0.7347506    2.0150122    0.0000000  0.00   -0.0017883   -0.0001173   -0.0000000
 H   -8.8549221    7.3698427    0.0000000  0.00   -0.0004585   -0.0012410   -0.0000000
 H   -7.5619548    9.4824461    0.0000000  0.00    0.0001454   -0.0015589   -0.0000000
 H   -5.1300265    9.4381543    0.0000000  0.00   -0.0014324    0.0011643   -0.0000000
 H   -8.9138848    4.9394707    0.0000000  0.00   -0.0003943   -0.0011273   -0.0000000
 H   -9.0024347    2.5099078    0.0000000  0.00   -0.0009748    0.0015509   -0.0000000
 H   -9.0418973    0.0000000    0.0000000  0.00   -0.0011122   -0.0000000   -0.0000000
 H   -3.2346891    9.3585280    0.0000000  0.00   -0.0011528   -0.0001325   -0.0000000
 H   -0.8645143    9.2597634    0.0000000  0.00    0.0008552    0.0020987   -0.0000000
 C    7.1091136    6.1075126    0.0000000  0.00    0.0013611   -0.0007088   -0.0000000
 C    5.6761111    6.0702368    0.0000000  0.00   -0.0002321   -0.0008208   -0.0000000
 C    7.7710483    7.3521137    0.0000000  0.00   -0.0003910    0.0012437   -0.0000000
 C    4.9531663    7.2796818    0.0000000  0.00    0.0006604   -0.0003776   -0.0000000
 C    7.0483140    8.5279383    0.0000000  0.00    0.0012245   -0.0024118   -0.0000000
 C    5.6600235    8.4973621    0.0000000  0.00   -0.0004636    0.0023323   -0.0000000
 C    7.1861675    3.6714789    0.0000000  0.00    0.0005716    0.0021495   -0.0000000
 C    5.7448691    3.6351166    0.0000000  0.00   -0.0005585    0.0001644   -0.0000000
 C    7.8296932    4.9048605    0.0000000  0.00   -0.0000888   -0.0003226   -0.0000000
 C    4.9873488    4.8207740    0.0000000  0.00   -0.0002475    0.0011904   -0.0000000
 C    7.2724371    1.2319146    0.0000000  0.00   -0.0015383    0.0006148   -0.0000000
 C    5.8376678    1.2222512    0.0000000  0.00   -0.0002584    0.0014261   -0.0000000
 C    7.9186896    2.4666680    0.0000000  0.00   -0.0002313   -0.0003088   -0.0000000
 C    5.0723436    2.4029480    0.0000000  0.00    0.0000437    0.0004800   -0.0000000
 C    3.5600669    4.7572582    0.0000000  0.00    0.0004250   -0.0003338   -0.0000000
 C    2.8336681    5.9634008    0.0000000  0.00    0.0010292   -0.0010000   -0.0000000
 C    3.5142390    7.2119129    0.0000000  0.00    0.0012556    0.0004999   -0.0000000
 C    3.6362823    2.3565301    0.0000000  0.00    0.0008834    0.0016110   -0.0000000
 C    2.8577905    3.5077168    0.0000000  0.00   -0.0016014    0.0002702   -0.0000000
 C    2.9723816    1.1279462    0.0000000  0.00   -0.0018348    0.0008835   -0.0000000
 C    1.4118756    5.8761988    0.0000000  0.00    0.0001559   -0.0007449   -0.0000000
 C    0.7088631    7.0959100    0.0000000  0.00    0.0013071   -0.0005156   -0.0000000
 C    2.7558824    8.3912680    0.0000000  0.00    0.0004124   -0.0006367   -0.0000000
 C    1.4044556    8.3292792    0.0000000  0.00   -0.0006677    0.0007224   -0.0000000
 C    1.4214441    3.3467116    0.0000000  0.00    0.0007338   -0.0012304   -0.0000000
 C    0.7053825    4.5989191    0.0000000  0.00   -0.0010945    0.0000759   -0.0000000
 C    1.5823480    0.8126339    0.0000000  0.00    0.0014753    0.0003421   -0.0000000
 C    0.7347506    2.0150122    0.0000000  0.00    0.0017883   -0.0001173   -0.0000000
 H    8.8549221    7.3698427    0.0000000  0.00    0.0004585   -0.0012410   -0.0000000
 H    7.5619548    9.4824461    0.0000000  0.00   -0.0001454   -0.0015589   -0.0000000
 H    5.1300265    9.4381543    0.0000000  0.00    0.0014324    0.0011643   -0.0000000
 H    8.9138848    4.9394707    0.0000000  0.00    0.0003943   -0.0011273   -0.0000000
 H    9.0024347    2.5099078    0.0000000  0.00    0.0009748    0.0015509   -0.0000000
 H    3.2346891    9.3585280    0.0000000  0.00    0.0011528   -0.0001325   -0.0000000
 H    0.8645143    9.2597634    0.0000000  0.00   -0.0008552    0.0020987   -0.0000000
 C   -7.1091136   -6.1075126    0.0000000  0.00   -0.0013611    0.0007088   -0.0000000
 C   -5.6761111   -6.0702368    0.0000000  0.00    0.0002321    0.0008208   -0.0000000
 C   -7.7710483   -7.3521137    0.0000000  0.00    0.0003910   -0.0012437   -0.0000000
 C   -4.9531663   -7.2796818    0.0000000  0.00   -0.0006604    0.0003776   -0.0000000
 C   -7.0483140   -8.5279383    0.0000000  0.00   -0.0012245    0.0024118   -0.0000000
 C   -5.6600235   -8.4973621    0.0000000  0.00    0.0004636   -0.0023323   -0.0000000
 C   -7.1861675   -3.6714789    0.0000000  0.00   -0.0005716   -0.0021495   -0.0000000
 C   -5.7448691   -3.6351166    0.0000000  0.00    0.0005585   -0.0001644   -0.0000000
 C   -7.8296932   -4.9048605    0.0000000  0.00    0.0000888    0.0003226   -0.0000000
 C   -4.9873488   -4.8207740    0.0000000  0.00    0.0002475   -0.0011904   -0.0000000
 C   -7.2724371   -1.2319146    0.0000000  0.00    0.0015383   -0.0006148   -0.0000000
 C   -5.8376678   -1.2222512    0.0000000  0.00    0.0002584   -0.0014261   -0.0000000
 C   -7.9186896   -2.4666680    0.0000000  0.00    0.0002313    0.0003088   -0.0000000
 C   -5.0723436   -2.4029480    0.0000000  0.00   -0.0000437   -0.0004800   -0.0000000
 C   -3.5600669   -4.7572582    0.0000000  0.00   -0.0004250    0.0003338   -0.0000000
 C   -2.8336681   -5.9634008    0.0000000  0.00   -0.0010292    0.0010000   -0.0000000
 C   -3.5142390   -7.2119129    0.0000000  0.00   -0.0012556   -0.0004999   -0.0000000
 C   -3.6362823   -2.3565301    0.0000000  0.00   -0.0008834   -0.0016110   -0.0000000
 C   -2.8577905   -3.5077168    0.0000000  0.00    0.0016014   -0.0002702   -0.0000000
 C   -2.9723816   -1.1279462    0.0000000  0.00    0.0018348   -0.0008835   -0.0000000
 C   -1.4118756   -5.8761988    0.0000000  0.00   -0.0001559    0.0007449   -0.0000000
 C   -0.7088631   -7.0959100    0.0000000  0.00   -0.0013071    0.0005156   -0.0000000
 C   -2.7558824   -8.3912680    0.0000000  0.00   -0.0004124    0.0006367   -0.0000000
 C   -1.4044556   -8.3292792    0.0000000  0.00    0.0006677   -0.0007224   -0.0000000
 C   -1.4214441   -3.3467116    0.0000000  0.00   -0.0007338    0.0012304   -0.0000000
 C   -0.7053825   -4.5989191    0.0000000  0.00    0.0010945   -0.0000759   -0.0000000
 C   -1.5823480   -0.8126339    0.0000000  0.00   -0.0014753   -0.0003421   -0.0000000
 C   -0.7347506   -2.0150122    0.0000000  0.00   -0.0017883    0.0001173   -0.0000000
 H   -8.8549221   -7.3698427    0.0000000  0.00   -0.0004585    0.0012410   -0.0000000
 H   -7.5619548   -9.4824461    0.0000000  0.00    0.0001454    0.0015589   -0.0000000
 H   -5.1300265   -9.4381543    0.0000000  0.00   -0.0014324   -0.0011643   -0.0000000
 H   -8.9138848   -4.9394707    0.0000000  0.00   -0.0003943    0.0011273   -0.0000000
 H   -9.0024347   -2.5099078    0.0000000  0.00   -0.0009748   -0.0015509   -0.0000000
 H   -3.2346891   -9.3585280    0.0000000  0.00   -0.0011528    0.0001325   -0.0000000
 H   -0.8645143   -9.2597634    0.0000000  0.00    0.0008552   -0.0020987   -0.0000000
