148
 Energy =   -4513.4097647180
 C    7.1340279   -6.0991460    0.0000000  0.00   -0.0004501    0.0005555   -0.0000000
 C    5.6977948   -6.0625897    0.0000000  0.00    0.0002886    0.0001578   -0.0000000
 C    7.7946335   -7.3502500    0.0000000  0.00    0.0003190    0.0007306   -0.0000000
 C    4.9741856   -7.2742479    0.0000000  0.00   -0.0000635    0.0020808   -0.0000000
 C    7.0709556   -8.5180040    0.0000000  0.00    0.0001973    0.0007832   -0.0000000
 C    5.6757448   -8.4850232    0.0000000  0.00    0.0009440   -0.0005716   -0.0000000
 C    7.2095396   -3.6659087    0.0000000  0.00   -0.0006221   -0.0004923   -0.0000000
 C    5.7641210   -3.6346093    0.0000000  0.00   -0.0000180    0.0001087   -0.0000000
 C    7.8542988   -4.9030868    0.0000000  0.00   -0.0019470   -0.0015821   -0.0000000
 C    5.0112666   -4.8150581    0.0000000  0.00   -0.0021956    0.0005387   -0.0000000
 C    7.2871758   -1.2297638    0.0000000  0.00   -0.0000738   -0.0002061   -0.0000000
 C    5.8480112   -1.2223293    0.0000000  0.00   -0.0007278   -0.0010424   -0.0000000
 C    7.9354865   -2.4647406    0.0000000  0.00   -0.0015012   -0.0001885   -0.0000000
 C    5.0889007   -2.3992675    0.0000000  0.00   -0.0009474    0.0000083   -0.0000000
 C    7.9668865    0.0000000    0.0000000  0.00   -0.0018995   -0.0000000   -0.0000000
 C    5.1697007    0.0000000    0.0000000  0.00   -0.0006186   -0.0000000   -0.0000000
 C    3.5718055   -4.7500378    0.0000000  0.00    0.0010217   -0.0011085   -0.0000000
 C    2.8434341   -5.9483507    0.0000000  0.00    0.0006316    0.0009821   -0.0000000
 C    3.5256597   -7.2042236    0.0000000  0.00    0.0018025   -0.0005127   -0.0000000
 C    3.6507348   -2.3543670    0.0000000  0.00    0.0013470    0.0001505   -0.0000000
 C    2.8727601   -3.5094001    0.0000000  0.00   -0.0004330   -0.0005670   -0.0000000
 C    3.7777422    0.0000000    0.0000000  0.00   -0.0002221   -0.0000000   -0.0000000
 C    2.9873764   -1.1329787    0.0000000  0.00    0.0004208   -0.0001090   -0.0000000
 C    1.4202822   -5.8590470    0.0000000  0.00    0.0003322    0.0000548   -0.0000000
 C    0.7154768   -7.0846483    0.0000000  0.00    0.0007788    0.0005103   -0.0000000
 C    2.7694052   -8.3664428    0.0000000  0.00   -0.0001609    0.0007023   -0.0000000
 C    1.4053522   -8.3007931    0.0000000  0.00    0.0005608   -0.0000396   -0.0000000
 C    1.4318401   -3.3548740    0.0000000  0.00    0.0001921    0.0000698   -0.0000000
 C    0.7186394   -4.5852516    0.0000000  0.00    0.0001467    0.0003026   -0.0000000
 C    1.5841850   -0.8360951    0.0000000  0.00   -0.0001715    0.0005674   -0.0000000
 C    0.7483172   -1.9978301    0.0000000  0.00    0.0001416   -0.0008921   -0.0000000
 H    8.8784856   -7.3692954    0.0000000  0.00    0.0002090    0.0008100   -0.0000000
 H    7.5802215   -9.4749136    0.0000000  0.00    0.0003331    0.0005657   -0.0000000
 H    5.1468452   -9.4269841    0.0000000  0.00    0.0006799    0.0015887   -0.0000000
 H    8.9385124   -4.9367526    0.0000000  0.00   -0.0012847   -0.0001365   -0.0000000
 H    9.0193864   -2.5048208    0.0000000  0.00   -0.0005654    0.0009434   -0.0000000
 H    9.0517478    0.0000000    0.0000000  0.00    0.0000851   -0.0000000   -0.0000000
 H    3.2417671   -9.3373404    0.0000000  0.00   -0.0005373    0.0001569   -0.0000000
 H    0.8687542   -9.2340497    0.0000000  0.00   -0.0004627   -0.0002462   -0.0000000
 C   -7.1340279    6.0991460    0.0000000  0.00    0.0004501   -0.0005555   -0.0000000
 C   -5.6977948    6.0625897    0.0000000  0.00   -0.0002886   -0.0001578   -0.0000000
 C   -7.7946335    7.3502500    0.0000000  0.00   -0.0003190   -0.0007306   -0.0000000
 C   -4.9741856    7.2742479    0.0000000  0.00    0.0000635   -0.0020808   -0.0000000
 C   -7.0709556    8.5180040    0.0000000  0.00   -0.0001973   -0.0007832   -0.0000000
 C   -5.6757448    8.4850232    0.0000000  0.00   -0.0009440    0.0005716   -0.0000000
 C   -7.2095396    3.6659087    0.0000000  0.00    0.0006221    0.0004923   -0.0000000
 C   -5.7641210    3.6346093    0.0000000  0.00    0.0000180   -0.0001087   -0.0000000
 C   -7.8542988    4.9030868    0.0000000  0.00    0.0019470    0.0015821   -0.0000000
 C   -5.0112666    4.8150581    0.0000000  0.00    0.0021956   -0.0005387   -0.0000000
 C   -7.2871758    1.2297638    0.0000000  0.00    0.0000738    0.0002061   -0.0000000
 C   -5.8480112    1.2223293    0.0000000  0.00    0.0007278    0.0010424   -0.0000000
 C   -7.9354865    2.4647406    0.0000000  0.00    0.0015012    0.0001885   -0.0000000
 C   -5.0889007    2.3992675    0.0000000  0.00    0.0009474   -0.0000083   -0.0000000
 C   -7.9668865    0.0000000    0.0000000  0.00    0.0018995   -0.0000000   -0.0000000
 C   -5.1697007    0.0000000    0.0000000  0.00    0.0006186   -0.0000000   -0.0000000
 C   -3.5718055    4.7500378    0.0000000  0.00   -0.0010217    0.0011085   -0.0000000
 C   -2.8434341    5.9483507    0.0000000  0.00   -0.0006316   -0.0009821   -0.0000000
 C   -3.5256597    7.2042236    0.0000000  0.00   -0.0018025    0.0005127   -0.0000000
 C   -3.6507348    2.3543670    0.0000000  0.00   -0.0013470   -0.0001505   -0.0000000
 C   -2.8727601    3.5094001    0.0000000  0.00    0.0004330    0.0005670   -0.0000000
 C   -3.7777422    0.0000000    0.0000000  0.00    0.0002221   -0.0000000   -0.0000000
 C   -2.9873764    1.1329787    0.0000000  0.00   -0.0004208    0.0001090   -0.0000000
 C   -1.4202822    5.8590470    0.0000000  0.00   -0.0003322   -0.0000548   -0.0000000
 C   -0.7154768    7.0846483    0.0000000  0.00   -0.0007788   -0.0005103   -0.0000000
 C   -2.7694052    8.3664428    0.0000000  0.00    0.0001609   -0.0007023   -0.0000000
 C   -1.4053522    8.3007931    0.0000000  0.00   -0.0005608    0.0000396   -0.0000000
 C   -1.4318401    3.3548740    0.0000000  0.00   -0.0001921   -0.0000698   -0.0000000
 C   -0.7186394    4.5852516    0.0000000  0.00   -0.0001467   -0.0003026   -0.0000000
 C   -1.5841850    0.8360951    0.0000000  0.00    0.0001715   -0.0005674   -0.0000000
 C   -0.7483172    1.9978301    0.0000000  0.00   -0.0001416    0.0008921   -0.0000000
 H   -8.8784856    7.3692954    0.0000000  0.00   -0.0002090   -0.0008100   -0.0000000
 H   -7.5802215    9.4749136    0.0000000  0.00   -0.0003331   -0.0005657   -0.0000000
 H   -5.1468452    9.4269841    0.0000000  0.00   -0.0006799   -0.0015887   -0.0000000
 H   -8.9385124    4.9367526    0.0000000  0.00    0.0012847    0.0001365   -0.0000000
 H   -9.0193864    2.5048208    0.0000000  0.00    0.0005654   -0.0009434   -0.0000000
 H   -9.0517478    0.0000000    0.0000000  0.00   -0.0000851   -0.0000000   -0.0000000
 H   -3.2417671    9.3373404    0.0000000  0.00    0.0005373   -0.0001569   -0.0000000
 H   -0.8687542    9.2340497    0.0000000  0.00    0.0004627    0.0002462   -0.0000000
 C    7.1340279    6.0991460    0.0000000  0.00   -0.0004501   -0.0005555   -0.0000000
 C    5.6977948    6.0625897    0.0000000  0.00    0.0002886   -0.0001578   -0.0000000
 C    7.7946335    7.3502500    0.0000000  0.00    0.0003190   -0.0007306   -0.0000000
 C    4.9741856    7.2742479    0.0000000  0.00   -0.0000635   -0.0020808   -0.0000000
 C    7.0709556    8.5180040    0.0000000  0.00    0.0001973   -0.0007832   -0.0000000
 C    5.6757448    8.4850232    0.0000000  0.00    0.0009440    0.0005716   -0.0000000
 C    7.2095396    3.6659087    0.0000000  0.00   -0.0006221    0.0004923   -0.0000000
 C    5.7641210    3.6346093    0.0000000  0.00   -0.0000180   -0.0001087   -0.0000000
 C    7.8542988    4.9030868    0.0000000  0.00   -0.0019470    0.0015821   -0.0000000
 C    5.0112666    4.8150581    0.0000000  0.00   -0.0021956   -0.0005387   -0.0000000
 C    7.2871758    1.2297638    0.0000000  0.00   -0.0000738    0.0002061   -0.0000000
 C    5.8480112    1.2223293    0.0000000  0.00   -0.0007278    0.0010424   -0.0000000
 C    7.9354865    2.4647406    0.0000000  0.00   -0.0015012    0.0001885   -0.0000000
 C    5.0889007    2.3992675    0.0000000  0.00   -0.0009474   -0.0000083   -0.0000000
 C    3.5718055    4.7500378    0.0000000  0.00    0.0010217    0.0011085   -0.0000000
 C    2.8434341    5.9483507    0.0000000  0.00    0.0006316   -0.0009821   -0.0000000
 C    3.5256597    7.2042236    0.0000000  0.00    0.0018025    0.0005127   -0.0000000
 C    3.6507348    2.3543670    0.0000000  0.00    0.0013470   -0.0001505   -0.0000000
 C    2.8727601    3.5094001    0.0000000  0.00   -0.0004330    0.0005670   -0.0000000
 C    2.9873764    1.1329787    0.0000000  0.00    0.0004208    0.0001090   -0.0000000
 C    1.4202822    5.8590470    0.0000000  0.00    0.0003322   -0.0000548   -0.0000000
 C    0.7154768    7.0846483    0.0000000  0.00    0.0007788   -0.0005103   -0.0000000
 C    2.7694052    8.3664428    0.0000000  0.00   -0.0001609   -0.0007023   -0.0000000
 C    1.4053522    8.3007931    0.0000000  0.00    0.0005608    0.0000396   -0.0000000
 C    1.4318401    3.3548740    0.0000000  0.00    0.0001921   -0.0000698   -0.0000000
 C    0.7186394    4.5852516    0.0000000  0.00    0.0001467   -0.0003026   -0.0000000
 C    1.5841850    0.8360951    0.0000000  0.00   -0.0001715   -0.0005674   -0.0000000
 C    0.7483172    1.9978301    0.0000000  0.00    0.0001416    0.0008921   -0.0000000
 H    8.8784856    7.3692954    0.0000000  0.00    0.0002090   -0.0008100   -0.0000000
 H    7.5802215    9.4749136    0.0000000  0.00    0.0003331   -0.0005657   -0.0000000
 H    5.1468452    9.4269841    0.0000000  0.00    0.0006799   -0.0015887   -0.0000000
 H    8.9385124    4.9367526    0.0000000  0.00   -0.0012847    0.0001365   -0.0000000
 H    9.0193864    2.5048208    0.0000000  0.00   -0.0005654   -0.0009434   -0.0000000
 H    3.2417671    9.3373404    0.0000000  0.00   -0.0005373   -0.0001569   -0.0000000
 H    0.8687542    9.2340497    0.0000000  0.00   -0.0004627    0.0002462   -0.0000000
 C   -7.1340279   -6.0991460    0.0000000  0.00    0.0004501    0.0005555   -0.0000000
 C   -5.6977948   -6.0625897    0.0000000  0.00   -0.0002886    0.0001578   -0.0000000
 C   -7.7946335   -7.3502500    0.0000000  0.00   -0.0003190    0.0007306   -0.0000000
 C   -4.9741856   -7.2742479    0.0000000  0.00    0.0000635    0.0020808   -0.0000000
 C   -7.0709556   -8.5180040    0.0000000  0.00   -0.0001973    0.0007832   -0.0000000
 C   -5.6757448   -8.4850232    0.0000000  0.00   -0.0009440   -0.0005716   -0.0000000
 C   -7.2095396   -3.6659087    0.0000000  0.00    0.0006221   -0.0004923   -0.0000000
 C   -5.7641210   -3.6346093    0.0000000  0.00    0.0000180    0.0001087   -0.0000000
 C   -7.8542988   -4.9030868    0.0000000  0.00    0.0019470   -0.0015821   -0.0000000
 C   -5.0112666   -4.8150581    0.0000000  0.00    0.0021956    0.0005387   -0.0000000
 C   -7.2871758   -1.2297638    0.0000000  0.00    0.0000738   -0.0002061   -0.0000000
 C   -5.8480112   -1.2223293    0.0000000  0.00    0.0007278   -0.0010424   -0.0000000
 C   -7.9354865   -2.4647406    0.0000000  0.00    0.0015012   -0.0001885   -0.0000000
 C   -5.0889007   -2.3992675    0.0000000  0.00    0.0009474    0.0000083   -0.0000000
 C   -3.5718055   -4.7500378    0.0000000  0.00   -0.0010217   -0.0011085   -0.0000000
 C   -2.8434341   -5.9483507    0.0000000  0.00   -0.0006316    0.0009821   -0.0000000
 C   -3.5256597   -7.2042236    0.0000000  0.00   -0.0018025   -0.0005127   -0.0000000
 C   -3.6507348   -2.3543670    0.0000000  0.00   -0.0013470    0.0001505   -0.0000000
 C   -2.8727601   -3.5094001    0.0000000  0.00    0.0004330   -0.0005670   -0.0000000
 C   -2.9873764   -1.1329787    0.0000000  0.00   -0.0004208   -0.0001090   -0.0000000
 C   -1.4202822   -5.8590470    0.0000000  0.00   -0.0003322    0.0000548   -0.0000000
 C   -0.7154768   -7.0846483    0.0000000  0.00   -0.0007788    0.0005103   -0.0000000
 C   -2.7694052   -8.3664428    0.0000000  0.00    0.0001609    0.0007023   -0.0000000
 C   -1.4053522   -8.3007931    0.0000000  0.00   -0.0005608   -0.0000396   -0.0000000
 C   -1.4318401   -3.3548740    0.0000000  0.00   -0.0001921    0.0000698   -0.0000000
 C   -0.7186394   -4.5852516    0.0000000  0.00   -0.0001467    0.0003026   -0.0000000
 C   -1.5841850   -0.8360951    0.0000000  0.00    0.0001715    0.0005674   -0.0000000
 C   -0.7483172   -1.9978301    0.0000000  0.00   -0.0001416   -0.0008921   -0.0000000
 H   -8.8784856   -7.3692954    0.0000000  0.00   -0.0002090    0.0008100   -0.0000000
 H   -7.5802215   -9.4749136    0.0000000  0.00   -0.0003331    0.0005657   -0.0000000
 H   -5.1468452   -9.4269841    0.0000000  0.00   -0.0006799    0.0015887   -0.0000000
 H   -8.9385124   -4.9367526    0.0000000  0.00    0.0012847   -0.0001365   -0.0000000
 H   -9.0193864   -2.5048208    0.0000000  0.00    0.0005654    0.0009434   -0.0000000
 H   -3.2417671   -9.3373404    0.0000000  0.00    0.0005373    0.0001569   -0.0000000
 H   -0.8687542   -9.2340497    0.0000000  0.00    0.0004627   -0.0002462   -0.0000000
