148
 Energy =   -4513.2413327290
 C    7.1176453   -6.0957726    0.0000000  0.00   -0.0010778    0.0020306   -0.0000000
 C    5.6834980   -6.0543186    0.0000000  0.00   -0.0015954   -0.0000457   -0.0000000
 C    7.7805918   -7.3447768    0.0000000  0.00    0.0002440    0.0022855   -0.0000000
 C    4.9599692   -7.2634095    0.0000000  0.00    0.0010047    0.0007013   -0.0000000
 C    7.0561090   -8.5114219    0.0000000  0.00    0.0022615   -0.0010805   -0.0000000
 C    5.6623664   -8.4745188    0.0000000  0.00   -0.0005594   -0.0014195   -0.0000000
 C    7.1993079   -3.6625337    0.0000000  0.00    0.0007838   -0.0010379   -0.0000000
 C    5.7557176   -3.6282203    0.0000000  0.00   -0.0039630   -0.0013539   -0.0000000
 C    7.8406816   -4.9018385    0.0000000  0.00   -0.0012701    0.0005546   -0.0000000
 C    5.0002614   -4.8063023    0.0000000  0.00    0.0009661   -0.0006717   -0.0000000
 C    7.2943416   -1.2274066    0.0000000  0.00    0.0005830    0.0007163   -0.0000000
 C    5.8546798   -1.2197153    0.0000000  0.00   -0.0021725    0.0010979   -0.0000000
 C    7.9343271   -2.4679258    0.0000000  0.00   -0.0014025   -0.0000648   -0.0000000
 C    5.0852053   -2.3944175    0.0000000  0.00    0.0003633   -0.0023182   -0.0000000
 C    7.9782635    0.0000000    0.0000000  0.00   -0.0029731   -0.0000000   -0.0000000
 C    5.1748958    0.0000000    0.0000000  0.00   -0.0000496   -0.0000000   -0.0000000
 C    3.5626156   -4.7391849    0.0000000  0.00   -0.0011335   -0.0004369   -0.0000000
 C    2.8348831   -5.9449506    0.0000000  0.00    0.0005781    0.0013195   -0.0000000
 C    3.5138648   -7.1972846    0.0000000  0.00   -0.0000978    0.0008436   -0.0000000
 C    3.6463884   -2.3460881    0.0000000  0.00   -0.0005637    0.0042300   -0.0000000
 C    2.8659580   -3.4991849    0.0000000  0.00    0.0003334   -0.0011626   -0.0000000
 C    3.7847093    0.0000000    0.0000000  0.00   -0.0045028   -0.0000000   -0.0000000
 C    2.9853747   -1.1221096    0.0000000  0.00   -0.0008082   -0.0018340   -0.0000000
 C    1.4154204   -5.8542129    0.0000000  0.00   -0.0002100   -0.0001148   -0.0000000
 C    0.7128356   -7.0769791    0.0000000  0.00    0.0003545   -0.0011304   -0.0000000
 C    2.7591688   -8.3670327    0.0000000  0.00    0.0006964    0.0006398   -0.0000000
 C    1.4015994   -8.3006808    0.0000000  0.00   -0.0000673   -0.0003772   -0.0000000
 C    1.4211333   -3.3357874    0.0000000  0.00    0.0009013    0.0007653   -0.0000000
 C    0.7117760   -4.5757100    0.0000000  0.00    0.0012053   -0.0003975   -0.0000000
 C    1.5837979   -0.7945526    0.0000000  0.00   -0.0012625    0.0026759   -0.0000000
 C    0.7341182   -1.9974181    0.0000000  0.00   -0.0006802    0.0031860   -0.0000000
 H    8.8675167   -7.3616201    0.0000000  0.00   -0.0016032   -0.0001214   -0.0000000
 H    7.5616151   -9.4738174    0.0000000  0.00    0.0005331    0.0003591   -0.0000000
 H    5.1309384   -9.4220363    0.0000000  0.00    0.0008070   -0.0000055   -0.0000000
 H    8.9260556   -4.9409510    0.0000000  0.00   -0.0001528    0.0007789   -0.0000000
 H    9.0179906   -2.5176238    0.0000000  0.00    0.0003059    0.0006994   -0.0000000
 H    9.0626086    0.0000000    0.0000000  0.00    0.0007146   -0.0000000   -0.0000000
 H    3.2249601   -9.3491057    0.0000000  0.00    0.0010901    0.0017004   -0.0000000
 H    0.8690719   -9.2456117    0.0000000  0.00   -0.0010096   -0.0003047   -0.0000000
 C   -7.1176453    6.0957726    0.0000000  0.00    0.0010778   -0.0020306   -0.0000000
 C   -5.6834980    6.0543186    0.0000000  0.00    0.0015954    0.0000457   -0.0000000
 C   -7.7805918    7.3447768    0.0000000  0.00   -0.0002440   -0.0022855   -0.0000000
 C   -4.9599692    7.2634095    0.0000000  0.00   -0.0010047   -0.0007013   -0.0000000
 C   -7.0561090    8.5114219    0.0000000  0.00   -0.0022615    0.0010805   -0.0000000
 C   -5.6623664    8.4745188    0.0000000  0.00    0.0005594    0.0014195   -0.0000000
 C   -7.1993079    3.6625337    0.0000000  0.00   -0.0007838    0.0010379   -0.0000000
 C   -5.7557176    3.6282203    0.0000000  0.00    0.0039630    0.0013539   -0.0000000
 C   -7.8406816    4.9018385    0.0000000  0.00    0.0012701   -0.0005546   -0.0000000
 C   -5.0002614    4.8063023    0.0000000  0.00   -0.0009661    0.0006717   -0.0000000
 C   -7.2943416    1.2274066    0.0000000  0.00   -0.0005830   -0.0007163   -0.0000000
 C   -5.8546798    1.2197153    0.0000000  0.00    0.0021725   -0.0010979   -0.0000000
 C   -7.9343271    2.4679258    0.0000000  0.00    0.0014025    0.0000648   -0.0000000
 C   -5.0852053    2.3944175    0.0000000  0.00   -0.0003633    0.0023182   -0.0000000
 C   -7.9782635    0.0000000    0.0000000  0.00    0.0029731   -0.0000000   -0.0000000
 C   -5.1748958    0.0000000    0.0000000  0.00    0.0000496   -0.0000000   -0.0000000
 C   -3.5626156    4.7391849    0.0000000  0.00    0.0011335    0.0004369   -0.0000000
 C   -2.8348831    5.9449506    0.0000000  0.00   -0.0005781   -0.0013195   -0.0000000
 C   -3.5138648    7.1972846    0.0000000  0.00    0.0000978   -0.0008436   -0.0000000
 C   -3.6463884    2.3460881    0.0000000  0.00    0.0005637   -0.0042300   -0.0000000
 C   -2.8659580    3.4991849    0.0000000  0.00   -0.0003334    0.0011626   -0.0000000
 C   -3.7847093    0.0000000    0.0000000  0.00    0.0045028   -0.0000000   -0.0000000
 C   -2.9853747    1.1221096    0.0000000  0.00    0.0008082    0.0018340   -0.0000000
 C   -1.4154204    5.8542129    0.0000000  0.00    0.0002100    0.0001148   -0.0000000
 C   -0.7128356    7.0769791    0.0000000  0.00   -0.0003545    0.0011304   -0.0000000
 C   -2.7591688    8.3670327    0.0000000  0.00   -0.0006964   -0.0006398   -0.0000000
 C   -1.4015994    8.3006808    0.0000000  0.00    0.0000673    0.0003772   -0.0000000
 C   -1.4211333    3.3357874    0.0000000  0.00   -0.0009013   -0.0007653   -0.0000000
 C   -0.7117760    4.5757100    0.0000000  0.00   -0.0012053    0.0003975   -0.0000000
 C   -1.5837979    0.7945526    0.0000000  0.00    0.0012625   -0.0026759   -0.0000000
 C   -0.7341182    1.9974181    0.0000000  0.00    0.0006802   -0.0031860   -0.0000000
 H   -8.8675167    7.3616201    0.0000000  0.00    0.0016032    0.0001214   -0.0000000
 H   -7.5616151    9.4738174    0.0000000  0.00   -0.0005331   -0.0003591   -0.0000000
 H   -5.1309384    9.4220363    0.0000000  0.00   -0.0008070    0.0000055   -0.0000000
 H   -8.9260556    4.9409510    0.0000000  0.00    0.0001528   -0.0007789   -0.0000000
 H   -9.0179906    2.5176238    0.0000000  0.00   -0.0003059   -0.0006994   -0.0000000
 H   -9.0626086    0.0000000    0.0000000  0.00   -0.0007146   -0.0000000   -0.0000000
 H   -3.2249601    9.3491057    0.0000000  0.00   -0.0010901   -0.0017004   -0.0000000
 H   -0.8690719    9.2456117    0.0000000  0.00    0.0010096    0.0003047   -0.0000000
 C    7.1176453    6.0957726    0.0000000  0.00   -0.0010778   -0.0020306   -0.0000000
 C    5.6834980    6.0543186    0.0000000  0.00   -0.0015954    0.0000457   -0.0000000
 C    7.7805918    7.3447768    0.0000000  0.00    0.0002440   -0.0022855   -0.0000000
 C    4.9599692    7.2634095    0.0000000  0.00    0.0010047   -0.0007013   -0.0000000
 C    7.0561090    8.5114219    0.0000000  0.00    0.0022615    0.0010805   -0.0000000
 C    5.6623664    8.4745188    0.0000000  0.00   -0.0005594    0.0014195   -0.0000000
 C    7.1993079    3.6625337    0.0000000  0.00    0.0007838    0.0010379   -0.0000000
 C    5.7557176    3.6282203    0.0000000  0.00   -0.0039630    0.0013539   -0.0000000
 C    7.8406816    4.9018385    0.0000000  0.00   -0.0012701   -0.0005546   -0.0000000
 C    5.0002614    4.8063023    0.0000000  0.00    0.0009661    0.0006717   -0.0000000
 C    7.2943416    1.2274066    0.0000000  0.00    0.0005830   -0.0007163   -0.0000000
 C    5.8546798    1.2197153    0.0000000  0.00   -0.0021725   -0.0010979   -0.0000000
 C    7.9343271    2.4679258    0.0000000  0.00   -0.0014025    0.0000648   -0.0000000
 C    5.0852053    2.3944175    0.0000000  0.00    0.0003633    0.0023182   -0.0000000
 C    3.5626156    4.7391849    0.0000000  0.00   -0.0011335    0.0004369   -0.0000000
 C    2.8348831    5.9449506    0.0000000  0.00    0.0005781   -0.0013195   -0.0000000
 C    3.5138648    7.1972846    0.0000000  0.00   -0.0000978   -0.0008436   -0.0000000
 C    3.6463884    2.3460881    0.0000000  0.00   -0.0005637   -0.0042300   -0.0000000
 C    2.8659580    3.4991849    0.0000000  0.00    0.0003334    0.0011626   -0.0000000
 C    2.9853747    1.1221096    0.0000000  0.00   -0.0008082    0.0018340   -0.0000000
 C    1.4154204    5.8542129    0.0000000  0.00   -0.0002100    0.0001148   -0.0000000
 C    0.7128356    7.0769791    0.0000000  0.00    0.0003545    0.0011304   -0.0000000
 C    2.7591688    8.3670327    0.0000000  0.00    0.0006964   -0.0006398   -0.0000000
 C    1.4015994    8.3006808    0.0000000  0.00   -0.0000673    0.0003772   -0.0000000
 C    1.4211333    3.3357874    0.0000000  0.00    0.0009013   -0.0007653   -0.0000000
 C    0.7117760    4.5757100    0.0000000  0.00    0.0012053    0.0003975   -0.0000000
 C    1.5837979    0.7945526    0.0000000  0.00   -0.0012625   -0.0026759   -0.0000000
 C    0.7341182    1.9974181    0.0000000  0.00   -0.0006802   -0.0031860   -0.0000000
 H    8.8675167    7.3616201    0.0000000  0.00   -0.0016032    0.0001214   -0.0000000
 H    7.5616151    9.4738174    0.0000000  0.00    0.0005331   -0.0003591   -0.0000000
 H    5.1309384    9.4220363    0.0000000  0.00    0.0008070    0.0000055   -0.0000000
 H    8.9260556    4.9409510    0.0000000  0.00   -0.0001528   -0.0007789   -0.0000000
 H    9.0179906    2.5176238    0.0000000  0.00    0.0003059   -0.0006994   -0.0000000
 H    3.2249601    9.3491057    0.0000000  0.00    0.0010901   -0.0017004   -0.0000000
 H    0.8690719    9.2456117    0.0000000  0.00   -0.0010096    0.0003047   -0.0000000
 C   -7.1176453   -6.0957726    0.0000000  0.00    0.0010778    0.0020306   -0.0000000
 C   -5.6834980   -6.0543186    0.0000000  0.00    0.0015954   -0.0000457   -0.0000000
 C   -7.7805918   -7.3447768    0.0000000  0.00   -0.0002440    0.0022855   -0.0000000
 C   -4.9599692   -7.2634095    0.0000000  0.00   -0.0010047    0.0007013   -0.0000000
 C   -7.0561090   -8.5114219    0.0000000  0.00   -0.0022615   -0.0010805   -0.0000000
 C   -5.6623664   -8.4745188    0.0000000  0.00    0.0005594   -0.0014195   -0.0000000
 C   -7.1993079   -3.6625337    0.0000000  0.00   -0.0007838   -0.0010379   -0.0000000
 C   -5.7557176   -3.6282203    0.0000000  0.00    0.0039630   -0.0013539   -0.0000000
 C   -7.8406816   -4.9018385    0.0000000  0.00    0.0012701    0.0005546   -0.0000000
 C   -5.0002614   -4.8063023    0.0000000  0.00   -0.0009661   -0.0006717   -0.0000000
 C   -7.2943416   -1.2274066    0.0000000  0.00   -0.0005830    0.0007163   -0.0000000
 C   -5.8546798   -1.2197153    0.0000000  0.00    0.0021725    0.0010979   -0.0000000
 C   -7.9343271   -2.4679258    0.0000000  0.00    0.0014025   -0.0000648   -0.0000000
 C   -5.0852053   -2.3944175    0.0000000  0.00   -0.0003633   -0.0023182   -0.0000000
 C   -3.5626156   -4.7391849    0.0000000  0.00    0.0011335   -0.0004369   -0.0000000
 C   -2.8348831   -5.9449506    0.0000000  0.00   -0.0005781    0.0013195   -0.0000000
 C   -3.5138648   -7.1972846    0.0000000  0.00    0.0000978    0.0008436   -0.0000000
 C   -3.6463884   -2.3460881    0.0000000  0.00    0.0005637    0.0042300   -0.0000000
 C   -2.8659580   -3.4991849    0.0000000  0.00   -0.0003334   -0.0011626   -0.0000000
 C   -2.9853747   -1.1221096    0.0000000  0.00    0.0008082   -0.0018340   -0.0000000
 C   -1.4154204   -5.8542129    0.0000000  0.00    0.0002100   -0.0001148   -0.0000000
 C   -0.7128356   -7.0769791    0.0000000  0.00   -0.0003545   -0.0011304   -0.0000000
 C   -2.7591688   -8.3670327    0.0000000  0.00   -0.0006964    0.0006398   -0.0000000
 C   -1.4015994   -8.3006808    0.0000000  0.00    0.0000673   -0.0003772   -0.0000000
 C   -1.4211333   -3.3357874    0.0000000  0.00   -0.0009013    0.0007653   -0.0000000
 C   -0.7117760   -4.5757100    0.0000000  0.00   -0.0012053   -0.0003975   -0.0000000
 C   -1.5837979   -0.7945526    0.0000000  0.00    0.0012625    0.0026759   -0.0000000
 C   -0.7341182   -1.9974181    0.0000000  0.00    0.0006802    0.0031860   -0.0000000
 H   -8.8675167   -7.3616201    0.0000000  0.00    0.0016032   -0.0001214   -0.0000000
 H   -7.5616151   -9.4738174    0.0000000  0.00   -0.0005331    0.0003591   -0.0000000
 H   -5.1309384   -9.4220363    0.0000000  0.00   -0.0008070   -0.0000055   -0.0000000
 H   -8.9260556   -4.9409510    0.0000000  0.00    0.0001528    0.0007789   -0.0000000
 H   -9.0179906   -2.5176238    0.0000000  0.00   -0.0003059    0.0006994   -0.0000000
 H   -3.2249601   -9.3491057    0.0000000  0.00   -0.0010901    0.0017004   -0.0000000
 H   -0.8690719   -9.2456117    0.0000000  0.00    0.0010096   -0.0003047   -0.0000000
