148
 Energy =   -4513.3829720300
 C    7.1120962   -6.0973162    0.0000000  0.00    0.0007301    0.0004778   -0.0000000
 C    5.6785419   -6.0554196    0.0000000  0.00   -0.0002838   -0.0001116   -0.0000000
 C    7.7698070   -7.3460585    0.0000000  0.00    0.0005890    0.0003426   -0.0000000
 C    4.9554754   -7.2642142    0.0000000  0.00    0.0000228   -0.0003559   -0.0000000
 C    7.0461611   -8.5176498    0.0000000  0.00   -0.0012959   -0.0002589   -0.0000000
 C    5.6546691   -8.4806610    0.0000000  0.00   -0.0017006   -0.0007376   -0.0000000
 C    7.2044438   -3.6632467    0.0000000  0.00    0.0015355    0.0008208   -0.0000000
 C    5.7588667   -3.6275850    0.0000000  0.00    0.0011090   -0.0003411   -0.0000000
 C    7.8383894   -4.9035669    0.0000000  0.00    0.0003503    0.0007008   -0.0000000
 C    4.9981317   -4.8048975    0.0000000  0.00    0.0011136    0.0001685   -0.0000000
 C    7.3115074   -1.2275910    0.0000000  0.00    0.0006691    0.0000607   -0.0000000
 C    5.8713598   -1.2192380    0.0000000  0.00   -0.0001213    0.0004340   -0.0000000
 C    7.9431956   -2.4702095    0.0000000  0.00   -0.0004841    0.0011138   -0.0000000
 C    5.0933006   -2.3910762    0.0000000  0.00    0.0016216   -0.0015975   -0.0000000
 C    7.9932258    0.0000000    0.0000000  0.00   -0.0003867   -0.0000000   -0.0000000
 C    5.1942368    0.0000000    0.0000000  0.00    0.0006460   -0.0000000   -0.0000000
 C    3.5601622   -4.7323424    0.0000000  0.00   -0.0001034   -0.0007189   -0.0000000
 C    2.8321289   -5.9427571    0.0000000  0.00   -0.0006945   -0.0004147   -0.0000000
 C    3.5123680   -7.1936448    0.0000000  0.00   -0.0006234    0.0007857   -0.0000000
 C    3.6507432   -2.3349919    0.0000000  0.00   -0.0002001   -0.0015177   -0.0000000
 C    2.8636730   -3.4955097    0.0000000  0.00   -0.0004433    0.0004515   -0.0000000
 C    3.8043989    0.0000000    0.0000000  0.00    0.0012283   -0.0000000   -0.0000000
 C    3.0010506   -1.1130054    0.0000000  0.00    0.0003794   -0.0008856   -0.0000000
 C    1.4148892   -5.8548093    0.0000000  0.00    0.0003908   -0.0001145   -0.0000000
 C    0.7118998   -7.0768223    0.0000000  0.00   -0.0008404   -0.0016335   -0.0000000
 C    2.7583050   -8.3668234    0.0000000  0.00   -0.0000038    0.0003561   -0.0000000
 C    1.4020669   -8.3024214    0.0000000  0.00    0.0009338   -0.0001591   -0.0000000
 C    1.4170097   -3.3334643    0.0000000  0.00   -0.0007365   -0.0003758   -0.0000000
 C    0.7097342   -4.5755399    0.0000000  0.00   -0.0011913   -0.0006950   -0.0000000
 C    1.5822913   -0.7474193    0.0000000  0.00   -0.0000991   -0.0004783   -0.0000000
 C    0.7153316   -2.0029783    0.0000000  0.00   -0.0002780    0.0001470   -0.0000000
 H    8.8537491   -7.3655030    0.0000000  0.00    0.0000982   -0.0004439   -0.0000000
 H    7.5558356   -9.4740752    0.0000000  0.00   -0.0003053    0.0000885   -0.0000000
 H    5.1227212   -9.4202312    0.0000000  0.00   -0.0008413   -0.0019032   -0.0000000
 H    8.9223963   -4.9451065    0.0000000  0.00    0.0000691    0.0009296   -0.0000000
 H    9.0264608   -2.5249225    0.0000000  0.00   -0.0005787    0.0000925   -0.0000000
 H    9.0776802    0.0000000    0.0000000  0.00   -0.0000076   -0.0000000   -0.0000000
 H    3.2351092   -9.3348786    0.0000000  0.00   -0.0008401   -0.0001331   -0.0000000
 H    0.8636001   -9.2341538    0.0000000  0.00   -0.0003701    0.0007925   -0.0000000
 C   -7.1120962    6.0973162    0.0000000  0.00   -0.0007301   -0.0004778   -0.0000000
 C   -5.6785419    6.0554196    0.0000000  0.00    0.0002838    0.0001116   -0.0000000
 C   -7.7698070    7.3460585    0.0000000  0.00   -0.0005890   -0.0003426   -0.0000000
 C   -4.9554754    7.2642142    0.0000000  0.00   -0.0000228    0.0003559   -0.0000000
 C   -7.0461611    8.5176498    0.0000000  0.00    0.0012959    0.0002589   -0.0000000
 C   -5.6546691    8.4806610    0.0000000  0.00    0.0017006    0.0007376   -0.0000000
 C   -7.2044438    3.6632467    0.0000000  0.00   -0.0015355   -0.0008208   -0.0000000
 C   -5.7588667    3.6275850    0.0000000  0.00   -0.0011090    0.0003411   -0.0000000
 C   -7.8383894    4.9035669    0.0000000  0.00   -0.0003503   -0.0007008   -0.0000000
 C   -4.9981317    4.8048975    0.0000000  0.00   -0.0011136   -0.0001685   -0.0000000
 C   -7.3115074    1.2275910    0.0000000  0.00   -0.0006691   -0.0000607   -0.0000000
 C   -5.8713598    1.2192380    0.0000000  0.00    0.0001213   -0.0004340   -0.0000000
 C   -7.9431956    2.4702095    0.0000000  0.00    0.0004841   -0.0011138   -0.0000000
 C   -5.0933006    2.3910762    0.0000000  0.00   -0.0016216    0.0015975   -0.0000000
 C   -7.9932258    0.0000000    0.0000000  0.00    0.0003867   -0.0000000   -0.0000000
 C   -5.1942368    0.0000000    0.0000000  0.00   -0.0006460   -0.0000000   -0.0000000
 C   -3.5601622    4.7323424    0.0000000  0.00    0.0001034    0.0007189   -0.0000000
 C   -2.8321289    5.9427571    0.0000000  0.00    0.0006945    0.0004147   -0.0000000
 C   -3.5123680    7.1936448    0.0000000  0.00    0.0006234   -0.0007857   -0.0000000
 C   -3.6507432    2.3349919    0.0000000  0.00    0.0002001    0.0015177   -0.0000000
 C   -2.8636730    3.4955097    0.0000000  0.00    0.0004433   -0.0004515   -0.0000000
 C   -3.8043989    0.0000000    0.0000000  0.00   -0.0012283   -0.0000000   -0.0000000
 C   -3.0010506    1.1130054    0.0000000  0.00   -0.0003794    0.0008856   -0.0000000
 C   -1.4148892    5.8548093    0.0000000  0.00   -0.0003908    0.0001145   -0.0000000
 C   -0.7118998    7.0768223    0.0000000  0.00    0.0008404    0.0016335   -0.0000000
 C   -2.7583050    8.3668234    0.0000000  0.00    0.0000038   -0.0003561   -0.0000000
 C   -1.4020669    8.3024214    0.0000000  0.00   -0.0009338    0.0001591   -0.0000000
 C   -1.4170097    3.3334643    0.0000000  0.00    0.0007365    0.0003758   -0.0000000
 C   -0.7097342    4.5755399    0.0000000  0.00    0.0011913    0.0006950   -0.0000000
 C   -1.5822913    0.7474193    0.0000000  0.00    0.0000991    0.0004783   -0.0000000
 C   -0.7153316    2.0029783    0.0000000  0.00    0.0002780   -0.0001470   -0.0000000
 H   -8.8537491    7.3655030    0.0000000  0.00   -0.0000982    0.0004439   -0.0000000
 H   -7.5558356    9.4740752    0.0000000  0.00    0.0003053   -0.0000885   -0.0000000
 H   -5.1227212    9.4202312    0.0000000  0.00    0.0008413    0.0019032   -0.0000000
 H   -8.9223963    4.9451065    0.0000000  0.00   -0.0000691   -0.0009296   -0.0000000
 H   -9.0264608    2.5249225    0.0000000  0.00    0.0005787   -0.0000925   -0.0000000
 H   -9.0776802    0.0000000    0.0000000  0.00    0.0000076   -0.0000000   -0.0000000
 H   -3.2351092    9.3348786    0.0000000  0.00    0.0008401    0.0001331   -0.0000000
 H   -0.8636001    9.2341538    0.0000000  0.00    0.0003701   -0.0007925   -0.0000000
 C    7.1120962    6.0973162    0.0000000  0.00    0.0007301   -0.0004778   -0.0000000
 C    5.6785419    6.0554196    0.0000000  0.00   -0.0002838    0.0001116   -0.0000000
 C    7.7698070    7.3460585    0.0000000  0.00    0.0005890   -0.0003426   -0.0000000
 C    4.9554754    7.2642142    0.0000000  0.00    0.0000228    0.0003559   -0.0000000
 C    7.0461611    8.5176498    0.0000000  0.00   -0.0012959    0.0002589   -0.0000000
 C    5.6546691    8.4806610    0.0000000  0.00   -0.0017006    0.0007376   -0.0000000
 C    7.2044438    3.6632467    0.0000000  0.00    0.0015355   -0.0008208   -0.0000000
 C    5.7588667    3.6275850    0.0000000  0.00    0.0011090    0.0003411   -0.0000000
 C    7.8383894    4.9035669    0.0000000  0.00    0.0003503   -0.0007008   -0.0000000
 C    4.9981317    4.8048975    0.0000000  0.00    0.0011136   -0.0001685   -0.0000000
 C    7.3115074    1.2275910    0.0000000  0.00    0.0006691   -0.0000607   -0.0000000
 C    5.8713598    1.2192380    0.0000000  0.00   -0.0001213   -0.0004340   -0.0000000
 C    7.9431956    2.4702095    0.0000000  0.00   -0.0004841   -0.0011138   -0.0000000
 C    5.0933006    2.3910762    0.0000000  0.00    0.0016216    0.0015975   -0.0000000
 C    3.5601622    4.7323424    0.0000000  0.00   -0.0001034    0.0007189   -0.0000000
 C    2.8321289    5.9427571    0.0000000  0.00   -0.0006945    0.0004147   -0.0000000
 C    3.5123680    7.1936448    0.0000000  0.00   -0.0006234   -0.0007857   -0.0000000
 C    3.6507432    2.3349919    0.0000000  0.00   -0.0002001    0.0015177   -0.0000000
 C    2.8636730    3.4955097    0.0000000  0.00   -0.0004433   -0.0004515   -0.0000000
 C    3.0010506    1.1130054    0.0000000  0.00    0.0003794    0.0008856   -0.0000000
 C    1.4148892    5.8548093    0.0000000  0.00    0.0003908    0.0001145   -0.0000000
 C    0.7118998    7.0768223    0.0000000  0.00   -0.0008404    0.0016335   -0.0000000
 C    2.7583050    8.3668234    0.0000000  0.00   -0.0000038   -0.0003561   -0.0000000
 C    1.4020669    8.3024214    0.0000000  0.00    0.0009338    0.0001591   -0.0000000
 C    1.4170097    3.3334643    0.0000000  0.00   -0.0007365    0.0003758   -0.0000000
 C    0.7097342    4.5755399    0.0000000  0.00   -0.0011913    0.0006950   -0.0000000
 C    1.5822913    0.7474193    0.0000000  0.00   -0.0000991    0.0004783   -0.0000000
 C    0.7153316    2.0029783    0.0000000  0.00   -0.0002780   -0.0001470   -0.0000000
 H    8.8537491    7.3655030    0.0000000  0.00    0.0000982    0.0004439   -0.0000000
 H    7.5558356    9.4740752    0.0000000  0.00   -0.0003053   -0.0000885   -0.0000000
 H    5.1227212    9.4202312    0.0000000  0.00   -0.0008413    0.0019032   -0.0000000
 H    8.9223963    4.9451065    0.0000000  0.00    0.0000691   -0.0009296   -0.0000000
 H    9.0264608    2.5249225    0.0000000  0.00   -0.0005787   -0.0000925   -0.0000000
 H    3.2351092    9.3348786    0.0000000  0.00   -0.0008401    0.0001331   -0.0000000
 H    0.8636001    9.2341538    0.0000000  0.00   -0.0003701   -0.0007925   -0.0000000
 C   -7.1120962   -6.0973162    0.0000000  0.00   -0.0007301    0.0004778   -0.0000000
 C   -5.6785419   -6.0554196    0.0000000  0.00    0.0002838   -0.0001116   -0.0000000
 C   -7.7698070   -7.3460585    0.0000000  0.00   -0.0005890    0.0003426   -0.0000000
 C   -4.9554754   -7.2642142    0.0000000  0.00   -0.0000228   -0.0003559   -0.0000000
 C   -7.0461611   -8.5176498    0.0000000  0.00    0.0012959   -0.0002589   -0.0000000
 C   -5.6546691   -8.4806610    0.0000000  0.00    0.0017006   -0.0007376   -0.0000000
 C   -7.2044438   -3.6632467    0.0000000  0.00   -0.0015355    0.0008208   -0.0000000
 C   -5.7588667   -3.6275850    0.0000000  0.00   -0.0011090   -0.0003411   -0.0000000
 C   -7.8383894   -4.9035669    0.0000000  0.00   -0.0003503    0.0007008   -0.0000000
 C   -4.9981317   -4.8048975    0.0000000  0.00   -0.0011136    0.0001685   -0.0000000
 C   -7.3115074   -1.2275910    0.0000000  0.00   -0.0006691    0.0000607   -0.0000000
 C   -5.8713598   -1.2192380    0.0000000  0.00    0.0001213    0.0004340   -0.0000000
 C   -7.9431956   -2.4702095    0.0000000  0.00    0.0004841    0.0011138   -0.0000000
 C   -5.0933006   -2.3910762    0.0000000  0.00   -0.0016216   -0.0015975   -0.0000000
 C   -3.5601622   -4.7323424    0.0000000  0.00    0.0001034   -0.0007189   -0.0000000
 C   -2.8321289   -5.9427571    0.0000000  0.00    0.0006945   -0.0004147   -0.0000000
 C   -3.5123680   -7.1936448    0.0000000  0.00    0.0006234    0.0007857   -0.0000000
 C   -3.6507432   -2.3349919    0.0000000  0.00    0.0002001   -0.0015177   -0.0000000
 C   -2.8636730   -3.4955097    0.0000000  0.00    0.0004433    0.0004515   -0.0000000
 C   -3.0010506   -1.1130054    0.0000000  0.00   -0.0003794   -0.0008856   -0.0000000
 C   -1.4148892   -5.8548093    0.0000000  0.00   -0.0003908   -0.0001145   -0.0000000
 C   -0.7118998   -7.0768223    0.0000000  0.00    0.0008404   -0.0016335   -0.0000000
 C   -2.7583050   -8.3668234    0.0000000  0.00    0.0000038    0.0003561   -0.0000000
 C   -1.4020669   -8.3024214    0.0000000  0.00   -0.0009338   -0.0001591   -0.0000000
 C   -1.4170097   -3.3334643    0.0000000  0.00    0.0007365   -0.0003758   -0.0000000
 C   -0.7097342   -4.5755399    0.0000000  0.00    0.0011913   -0.0006950   -0.0000000
 C   -1.5822913   -0.7474193    0.0000000  0.00    0.0000991   -0.0004783   -0.0000000
 C   -0.7153316   -2.0029783    0.0000000  0.00    0.0002780    0.0001470   -0.0000000
 H   -8.8537491   -7.3655030    0.0000000  0.00   -0.0000982   -0.0004439   -0.0000000
 H   -7.5558356   -9.4740752    0.0000000  0.00    0.0003053    0.0000885   -0.0000000
 H   -5.1227212   -9.4202312    0.0000000  0.00    0.0008413   -0.0019032   -0.0000000
 H   -8.9223963   -4.9451065    0.0000000  0.00   -0.0000691    0.0009296   -0.0000000
 H   -9.0264608   -2.5249225    0.0000000  0.00    0.0005787    0.0000925   -0.0000000
 H   -3.2351092   -9.3348786    0.0000000  0.00    0.0008401   -0.0001331   -0.0000000
 H   -0.8636001   -9.2341538    0.0000000  0.00    0.0003701    0.0007925   -0.0000000
