148
 Energy =   -4513.2333031690
 C    7.1058073   -6.0982843    0.0000000  0.00   -0.0004833    0.0003316   -0.0000000
 C    5.6735159   -6.0601006    0.0000000  0.00    0.0002645   -0.0012848   -0.0000000
 C    7.7740211   -7.3423428    0.0000000  0.00    0.0003508   -0.0022306   -0.0000000
 C    4.9534930   -7.2710893    0.0000000  0.00   -0.0013948    0.0007239   -0.0000000
 C    7.0545754   -8.5143760    0.0000000  0.00   -0.0005764    0.0032033   -0.0000000
 C    5.6648601   -8.4838504    0.0000000  0.00    0.0011686   -0.0019231   -0.0000000
 C    7.1820347   -3.6680120    0.0000000  0.00    0.0011500    0.0031152   -0.0000000
 C    5.7447704   -3.6320793    0.0000000  0.00   -0.0000470   -0.0011354   -0.0000000
 C    7.8280050   -4.9022340    0.0000000  0.00    0.0003787    0.0003960   -0.0000000
 C    4.9866428   -4.8140612    0.0000000  0.00    0.0035604    0.0025144   -0.0000000
 C    7.2780670   -1.2327274    0.0000000  0.00   -0.0012253    0.0009091   -0.0000000
 C    5.8410476   -1.2228265    0.0000000  0.00    0.0014165    0.0021937   -0.0000000
 C    7.9202213   -2.4669770    0.0000000  0.00    0.0016260    0.0009352   -0.0000000
 C    5.0736822   -2.3980988    0.0000000  0.00    0.0023306    0.0008667   -0.0000000
 C    7.9668840    0.0000000    0.0000000  0.00   -0.0007553   -0.0000000   -0.0000000
 C    5.1613613    0.0000000    0.0000000  0.00    0.0012136   -0.0000000   -0.0000000
 C    3.5568299   -4.7502114    0.0000000  0.00   -0.0014827   -0.0020256   -0.0000000
 C    2.8313067   -5.9563480    0.0000000  0.00    0.0006947    0.0008764   -0.0000000
 C    3.5137302   -7.2061092    0.0000000  0.00   -0.0010903   -0.0015172   -0.0000000
 C    3.6365381   -2.3512707    0.0000000  0.00   -0.0004499    0.0003093   -0.0000000
 C    2.8567275   -3.5030387    0.0000000  0.00    0.0029421    0.0014368   -0.0000000
 C    3.7755694    0.0000000    0.0000000  0.00    0.0017678   -0.0000000   -0.0000000
 C    2.9750572   -1.1251445    0.0000000  0.00   -0.0001145   -0.0010356   -0.0000000
 C    1.4111357   -5.8685286    0.0000000  0.00   -0.0024150   -0.0012923   -0.0000000
 C    0.7096050   -7.0901993    0.0000000  0.00    0.0018656   -0.0012883   -0.0000000
 C    2.7588824   -8.3846703    0.0000000  0.00   -0.0005651    0.0003210   -0.0000000
 C    1.4056315   -8.3201075    0.0000000  0.00   -0.0002214    0.0010198   -0.0000000
 C    1.4200092   -3.3414947    0.0000000  0.00   -0.0014879   -0.0020629   -0.0000000
 C    0.7063853   -4.5910136    0.0000000  0.00    0.0037137   -0.0012094   -0.0000000
 C    1.5811568   -0.8050295    0.0000000  0.00   -0.0007690    0.0002171   -0.0000000
 C    0.7348380   -2.0071489    0.0000000  0.00    0.0010072   -0.0016326   -0.0000000
 H    8.8641572   -7.3529120    0.0000000  0.00    0.0012564    0.0004575   -0.0000000
 H    7.5675218   -9.4758900    0.0000000  0.00   -0.0008108   -0.0014563   -0.0000000
 H    5.1401863   -9.4361547    0.0000000  0.00    0.0023008   -0.0004243   -0.0000000
 H    8.9154490   -4.9417134    0.0000000  0.00   -0.0008683    0.0006734   -0.0000000
 H    9.0043927   -2.5183795    0.0000000  0.00   -0.0002493   -0.0001995   -0.0000000
 H    9.0513777    0.0000000    0.0000000  0.00   -0.0043041   -0.0000000   -0.0000000
 H    3.2380854   -9.3551601    0.0000000  0.00    0.0002417    0.0002951   -0.0000000
 H    0.8670991   -9.2521067    0.0000000  0.00    0.0009944    0.0000651   -0.0000000
 C   -7.1058073    6.0982843    0.0000000  0.00    0.0004833   -0.0003316   -0.0000000
 C   -5.6735159    6.0601006    0.0000000  0.00   -0.0002645    0.0012848   -0.0000000
 C   -7.7740211    7.3423428    0.0000000  0.00   -0.0003508    0.0022306   -0.0000000
 C   -4.9534930    7.2710893    0.0000000  0.00    0.0013948   -0.0007239   -0.0000000
 C   -7.0545754    8.5143760    0.0000000  0.00    0.0005764   -0.0032033   -0.0000000
 C   -5.6648601    8.4838504    0.0000000  0.00   -0.0011686    0.0019231   -0.0000000
 C   -7.1820347    3.6680120    0.0000000  0.00   -0.0011500   -0.0031152   -0.0000000
 C   -5.7447704    3.6320793    0.0000000  0.00    0.0000470    0.0011354   -0.0000000
 C   -7.8280050    4.9022340    0.0000000  0.00   -0.0003787   -0.0003960   -0.0000000
 C   -4.9866428    4.8140612    0.0000000  0.00   -0.0035604   -0.0025144   -0.0000000
 C   -7.2780670    1.2327274    0.0000000  0.00    0.0012253   -0.0009091   -0.0000000
 C   -5.8410476    1.2228265    0.0000000  0.00   -0.0014165   -0.0021937   -0.0000000
 C   -7.9202213    2.4669770    0.0000000  0.00   -0.0016260   -0.0009352   -0.0000000
 C   -5.0736822    2.3980988    0.0000000  0.00   -0.0023306   -0.0008667   -0.0000000
 C   -7.9668840    0.0000000    0.0000000  0.00    0.0007553   -0.0000000   -0.0000000
 C   -5.1613613    0.0000000    0.0000000  0.00   -0.0012136   -0.0000000   -0.0000000
 C   -3.5568299    4.7502114    0.0000000  0.00    0.0014827    0.0020256   -0.0000000
 C   -2.8313067    5.9563480    0.0000000  0.00   -0.0006947   -0.0008764   -0.0000000
 C   -3.5137302    7.2061092    0.0000000  0.00    0.0010903    0.0015172   -0.0000000
 C   -3.6365381    2.3512707    0.0000000  0.00    0.0004499   -0.0003093   -0.0000000
 C   -2.8567275    3.5030387    0.0000000  0.00   -0.0029421   -0.0014368   -0.0000000
 C   -3.7755694    0.0000000    0.0000000  0.00   -0.0017678   -0.0000000   -0.0000000
 C   -2.9750572    1.1251445    0.0000000  0.00    0.0001145    0.0010356   -0.0000000
 C   -1.4111357    5.8685286    0.0000000  0.00    0.0024150    0.0012923   -0.0000000
 C   -0.7096050    7.0901993    0.0000000  0.00   -0.0018656    0.0012883   -0.0000000
 C   -2.7588824    8.3846703    0.0000000  0.00    0.0005651   -0.0003210   -0.0000000
 C   -1.4056315    8.3201075    0.0000000  0.00    0.0002214   -0.0010198   -0.0000000
 C   -1.4200092    3.3414947    0.0000000  0.00    0.0014879    0.0020629   -0.0000000
 C   -0.7063853    4.5910136    0.0000000  0.00   -0.0037137    0.0012094   -0.0000000
 C   -1.5811568    0.8050295    0.0000000  0.00    0.0007690   -0.0002171   -0.0000000
 C   -0.7348380    2.0071489    0.0000000  0.00   -0.0010072    0.0016326   -0.0000000
 H   -8.8641572    7.3529120    0.0000000  0.00   -0.0012564   -0.0004575   -0.0000000
 H   -7.5675218    9.4758900    0.0000000  0.00    0.0008108    0.0014563   -0.0000000
 H   -5.1401863    9.4361547    0.0000000  0.00   -0.0023008    0.0004243   -0.0000000
 H   -8.9154490    4.9417134    0.0000000  0.00    0.0008683   -0.0006734   -0.0000000
 H   -9.0043927    2.5183795    0.0000000  0.00    0.0002493    0.0001995   -0.0000000
 H   -9.0513777    0.0000000    0.0000000  0.00    0.0043041   -0.0000000   -0.0000000
 H   -3.2380854    9.3551601    0.0000000  0.00   -0.0002417   -0.0002951   -0.0000000
 H   -0.8670991    9.2521067    0.0000000  0.00   -0.0009944   -0.0000651   -0.0000000
 C    7.1058073    6.0982843    0.0000000  0.00   -0.0004833   -0.0003316   -0.0000000
 C    5.6735159    6.0601006    0.0000000  0.00    0.0002645    0.0012848   -0.0000000
 C    7.7740211    7.3423428    0.0000000  0.00    0.0003508    0.0022306   -0.0000000
 C    4.9534930    7.2710893    0.0000000  0.00   -0.0013948   -0.0007239   -0.0000000
 C    7.0545754    8.5143760    0.0000000  0.00   -0.0005764   -0.0032033   -0.0000000
 C    5.6648601    8.4838504    0.0000000  0.00    0.0011686    0.0019231   -0.0000000
 C    7.1820347    3.6680120    0.0000000  0.00    0.0011500   -0.0031152   -0.0000000
 C    5.7447704    3.6320793    0.0000000  0.00   -0.0000470    0.0011354   -0.0000000
 C    7.8280050    4.9022340    0.0000000  0.00    0.0003787   -0.0003960   -0.0000000
 C    4.9866428    4.8140612    0.0000000  0.00    0.0035604   -0.0025144   -0.0000000
 C    7.2780670    1.2327274    0.0000000  0.00   -0.0012253   -0.0009091   -0.0000000
 C    5.8410476    1.2228265    0.0000000  0.00    0.0014165   -0.0021937   -0.0000000
 C    7.9202213    2.4669770    0.0000000  0.00    0.0016260   -0.0009352   -0.0000000
 C    5.0736822    2.3980988    0.0000000  0.00    0.0023306   -0.0008667   -0.0000000
 C    3.5568299    4.7502114    0.0000000  0.00   -0.0014827    0.0020256   -0.0000000
 C    2.8313067    5.9563480    0.0000000  0.00    0.0006947   -0.0008764   -0.0000000
 C    3.5137302    7.2061092    0.0000000  0.00   -0.0010903    0.0015172   -0.0000000
 C    3.6365381    2.3512707    0.0000000  0.00   -0.0004499   -0.0003093   -0.0000000
 C    2.8567275    3.5030387    0.0000000  0.00    0.0029421   -0.0014368   -0.0000000
 C    2.9750572    1.1251445    0.0000000  0.00   -0.0001145    0.0010356   -0.0000000
 C    1.4111357    5.8685286    0.0000000  0.00   -0.0024150    0.0012923   -0.0000000
 C    0.7096050    7.0901993    0.0000000  0.00    0.0018656    0.0012883   -0.0000000
 C    2.7588824    8.3846703    0.0000000  0.00   -0.0005651   -0.0003210   -0.0000000
 C    1.4056315    8.3201075    0.0000000  0.00   -0.0002214   -0.0010198   -0.0000000
 C    1.4200092    3.3414947    0.0000000  0.00   -0.0014879    0.0020629   -0.0000000
 C    0.7063853    4.5910136    0.0000000  0.00    0.0037137    0.0012094   -0.0000000
 C    1.5811568    0.8050295    0.0000000  0.00   -0.0007690   -0.0002171   -0.0000000
 C    0.7348380    2.0071489    0.0000000  0.00    0.0010072    0.0016326   -0.0000000
 H    8.8641572    7.3529120    0.0000000  0.00    0.0012564   -0.0004575   -0.0000000
 H    7.5675218    9.4758900    0.0000000  0.00   -0.0008108    0.0014563   -0.0000000
 H    5.1401863    9.4361547    0.0000000  0.00    0.0023008    0.0004243   -0.0000000
 H    8.9154490    4.9417134    0.0000000  0.00   -0.0008683   -0.0006734   -0.0000000
 H    9.0043927    2.5183795    0.0000000  0.00   -0.0002493    0.0001995   -0.0000000
 H    3.2380854    9.3551601    0.0000000  0.00    0.0002417   -0.0002951   -0.0000000
 H    0.8670991    9.2521067    0.0000000  0.00    0.0009944   -0.0000651   -0.0000000
 C   -7.1058073   -6.0982843    0.0000000  0.00    0.0004833    0.0003316   -0.0000000
 C   -5.6735159   -6.0601006    0.0000000  0.00   -0.0002645   -0.0012848   -0.0000000
 C   -7.7740211   -7.3423428    0.0000000  0.00   -0.0003508   -0.0022306   -0.0000000
 C   -4.9534930   -7.2710893    0.0000000  0.00    0.0013948    0.0007239   -0.0000000
 C   -7.0545754   -8.5143760    0.0000000  0.00    0.0005764    0.0032033   -0.0000000
 C   -5.6648601   -8.4838504    0.0000000  0.00   -0.0011686   -0.0019231   -0.0000000
 C   -7.1820347   -3.6680120    0.0000000  0.00   -0.0011500    0.0031152   -0.0000000
 C   -5.7447704   -3.6320793    0.0000000  0.00    0.0000470   -0.0011354   -0.0000000
 C   -7.8280050   -4.9022340    0.0000000  0.00   -0.0003787    0.0003960   -0.0000000
 C   -4.9866428   -4.8140612    0.0000000  0.00   -0.0035604    0.0025144   -0.0000000
 C   -7.2780670   -1.2327274    0.0000000  0.00    0.0012253    0.0009091   -0.0000000
 C   -5.8410476   -1.2228265    0.0000000  0.00   -0.0014165    0.0021937   -0.0000000
 C   -7.9202213   -2.4669770    0.0000000  0.00   -0.0016260    0.0009352   -0.0000000
 C   -5.0736822   -2.3980988    0.0000000  0.00   -0.0023306    0.0008667   -0.0000000
 C   -3.5568299   -4.7502114    0.0000000  0.00    0.0014827   -0.0020256   -0.0000000
 C   -2.8313067   -5.9563480    0.0000000  0.00   -0.0006947    0.0008764   -0.0000000
 C   -3.5137302   -7.2061092    0.0000000  0.00    0.0010903   -0.0015172   -0.0000000
 C   -3.6365381   -2.3512707    0.0000000  0.00    0.0004499    0.0003093   -0.0000000
 C   -2.8567275   -3.5030387    0.0000000  0.00   -0.0029421    0.0014368   -0.0000000
 C   -2.9750572   -1.1251445    0.0000000  0.00    0.0001145   -0.0010356   -0.0000000
 C   -1.4111357   -5.8685286    0.0000000  0.00    0.0024150   -0.0012923   -0.0000000
 C   -0.7096050   -7.0901993    0.0000000  0.00   -0.0018656   -0.0012883   -0.0000000
 C   -2.7588824   -8.3846703    0.0000000  0.00    0.0005651    0.0003210   -0.0000000
 C   -1.4056315   -8.3201075    0.0000000  0.00    0.0002214    0.0010198   -0.0000000
 C   -1.4200092   -3.3414947    0.0000000  0.00    0.0014879   -0.0020629   -0.0000000
 C   -0.7063853   -4.5910136    0.0000000  0.00   -0.0037137   -0.0012094   -0.0000000
 C   -1.5811568   -0.8050295    0.0000000  0.00    0.0007690    0.0002171   -0.0000000
 C   -0.7348380   -2.0071489    0.0000000  0.00   -0.0010072   -0.0016326   -0.0000000
 H   -8.8641572   -7.3529120    0.0000000  0.00   -0.0012564    0.0004575   -0.0000000
 H   -7.5675218   -9.4758900    0.0000000  0.00    0.0008108   -0.0014563   -0.0000000
 H   -5.1401863   -9.4361547    0.0000000  0.00   -0.0023008   -0.0004243   -0.0000000
 H   -8.9154490   -4.9417134    0.0000000  0.00    0.0008683    0.0006734   -0.0000000
 H   -9.0043927   -2.5183795    0.0000000  0.00    0.0002493   -0.0001995   -0.0000000
 H   -3.2380854   -9.3551601    0.0000000  0.00   -0.0002417    0.0002951   -0.0000000
 H   -0.8670991   -9.2521067    0.0000000  0.00   -0.0009944    0.0000651   -0.0000000
