148
 Energy =   -4513.0550510670
 C    7.1155951   -6.0800844    0.0000000  0.00   -0.0003137    0.0000574   -0.0000000
 C    5.6812449   -6.0429304    0.0000000  0.00   -0.0005297    0.0005549   -0.0000000
 C    7.7891042   -7.3230066    0.0000000  0.00   -0.0007894    0.0000808   -0.0000000
 C    4.9641828   -7.2546985    0.0000000  0.00    0.0003426   -0.0005364   -0.0000000
 C    7.0710904   -8.4917301    0.0000000  0.00   -0.0005294    0.0008600   -0.0000000
 C    5.6787559   -8.4604264    0.0000000  0.00    0.0001793    0.0000508   -0.0000000
 C    7.1884441   -3.6548516    0.0000000  0.00    0.0000487   -0.0002169   -0.0000000
 C    5.7463868   -3.6210103    0.0000000  0.00   -0.0007454   -0.0000176   -0.0000000
 C    7.8394655   -4.8896055    0.0000000  0.00   -0.0000834    0.0001610   -0.0000000
 C    4.9923761   -4.7994103    0.0000000  0.00    0.0009706   -0.0001220   -0.0000000
 C    7.2843037   -1.2262147    0.0000000  0.00   -0.0004767   -0.0000088   -0.0000000
 C    5.8462895   -1.2171400    0.0000000  0.00    0.0008243   -0.0007401   -0.0000000
 C    7.9293401   -2.4660343    0.0000000  0.00    0.0004040   -0.0006507   -0.0000000
 C    5.0759477   -2.3906753    0.0000000  0.00    0.0000075    0.0003584   -0.0000000
 C    7.9721270    0.0000000    0.0000000  0.00    0.0002733   -0.0000000   -0.0000000
 C    5.1668412    0.0000000    0.0000000  0.00   -0.0020057   -0.0000000   -0.0000000
 C    3.5578792   -4.7367340    0.0000000  0.00   -0.0012746    0.0005683   -0.0000000
 C    2.8330834   -5.9443599    0.0000000  0.00    0.0003377   -0.0002789   -0.0000000
 C    3.5178424   -7.1934835    0.0000000  0.00   -0.0000962    0.0006136   -0.0000000
 C    3.6387964   -2.3443968    0.0000000  0.00   -0.0000637   -0.0008677   -0.0000000
 C    2.8600653   -3.4978539    0.0000000  0.00    0.0011188    0.0005588   -0.0000000
 C    3.7768740    0.0000000    0.0000000  0.00    0.0014688   -0.0000000   -0.0000000
 C    2.9780954   -1.1213293    0.0000000  0.00    0.0002931    0.0001781   -0.0000000
 C    1.4145079   -5.8563224    0.0000000  0.00   -0.0005963   -0.0000029   -0.0000000
 C    0.7134323   -7.0793432    0.0000000  0.00    0.0009261   -0.0008808   -0.0000000
 C    2.7675772   -8.3671175    0.0000000  0.00    0.0008019   -0.0000022   -0.0000000
 C    1.4082719   -8.3006026    0.0000000  0.00    0.0006352   -0.0006933   -0.0000000
 C    1.4181459   -3.3363069    0.0000000  0.00    0.0002540   -0.0001277   -0.0000000
 C    0.7101982   -4.5776169    0.0000000  0.00    0.0005578   -0.0005319   -0.0000000
 C    1.5783589   -0.7944053    0.0000000  0.00    0.0008258   -0.0001285   -0.0000000
 C    0.7325328   -1.9980327    0.0000000  0.00    0.0004687   -0.0005520   -0.0000000
 H    8.8813940   -7.3246633    0.0000000  0.00    0.0006026   -0.0007340   -0.0000000
 H    7.5790711   -9.4588755    0.0000000  0.00    0.0008018    0.0007339   -0.0000000
 H    5.1583923   -9.4210410    0.0000000  0.00    0.0002059   -0.0007777   -0.0000000
 H    8.9333089   -4.9213275    0.0000000  0.00   -0.0000857   -0.0001415   -0.0000000
 H    9.0181007   -2.5271375    0.0000000  0.00    0.0003779   -0.0006571   -0.0000000
 H    9.0565626    0.0000000    0.0000000  0.00    0.0001333   -0.0000000   -0.0000000
 H    3.2450158   -9.3417932    0.0000000  0.00   -0.0003936   -0.0006180   -0.0000000
 H    0.8726900   -9.2351106    0.0000000  0.00    0.0002660   -0.0002851   -0.0000000
 C   -7.1155951    6.0800844    0.0000000  0.00    0.0003137   -0.0000574   -0.0000000
 C   -5.6812449    6.0429304    0.0000000  0.00    0.0005297   -0.0005549   -0.0000000
 C   -7.7891042    7.3230066    0.0000000  0.00    0.0007894   -0.0000808   -0.0000000
 C   -4.9641828    7.2546985    0.0000000  0.00   -0.0003426    0.0005364   -0.0000000
 C   -7.0710904    8.4917301    0.0000000  0.00    0.0005294   -0.0008600   -0.0000000
 C   -5.6787559    8.4604264    0.0000000  0.00   -0.0001793   -0.0000508   -0.0000000
 C   -7.1884441    3.6548516    0.0000000  0.00   -0.0000487    0.0002169   -0.0000000
 C   -5.7463868    3.6210103    0.0000000  0.00    0.0007454    0.0000176   -0.0000000
 C   -7.8394655    4.8896055    0.0000000  0.00    0.0000834   -0.0001610   -0.0000000
 C   -4.9923761    4.7994103    0.0000000  0.00   -0.0009706    0.0001220   -0.0000000
 C   -7.2843037    1.2262147    0.0000000  0.00    0.0004767    0.0000088   -0.0000000
 C   -5.8462895    1.2171400    0.0000000  0.00   -0.0008243    0.0007401   -0.0000000
 C   -7.9293401    2.4660343    0.0000000  0.00   -0.0004040    0.0006507   -0.0000000
 C   -5.0759477    2.3906753    0.0000000  0.00   -0.0000075   -0.0003584   -0.0000000
 C   -7.9721270    0.0000000    0.0000000  0.00   -0.0002733   -0.0000000   -0.0000000
 C   -5.1668412    0.0000000    0.0000000  0.00    0.0020057   -0.0000000   -0.0000000
 C   -3.5578792    4.7367340    0.0000000  0.00    0.0012746   -0.0005683   -0.0000000
 C   -2.8330834    5.9443599    0.0000000  0.00   -0.0003377    0.0002789   -0.0000000
 C   -3.5178424    7.1934835    0.0000000  0.00    0.0000962   -0.0006136   -0.0000000
 C   -3.6387964    2.3443968    0.0000000  0.00    0.0000637    0.0008677   -0.0000000
 C   -2.8600653    3.4978539    0.0000000  0.00   -0.0011188   -0.0005588   -0.0000000
 C   -3.7768740    0.0000000    0.0000000  0.00   -0.0014688   -0.0000000   -0.0000000
 C   -2.9780954    1.1213293    0.0000000  0.00   -0.0002931   -0.0001781   -0.0000000
 C   -1.4145079    5.8563224    0.0000000  0.00    0.0005963    0.0000029   -0.0000000
 C   -0.7134323    7.0793432    0.0000000  0.00   -0.0009261    0.0008808   -0.0000000
 C   -2.7675772    8.3671175    0.0000000  0.00   -0.0008019    0.0000022   -0.0000000
 C   -1.4082719    8.3006026    0.0000000  0.00   -0.0006352    0.0006933   -0.0000000
 C   -1.4181459    3.3363069    0.0000000  0.00   -0.0002540    0.0001277   -0.0000000
 C   -0.7101982    4.5776169    0.0000000  0.00   -0.0005578    0.0005319   -0.0000000
 C   -1.5783589    0.7944053    0.0000000  0.00   -0.0008258    0.0001285   -0.0000000
 C   -0.7325328    1.9980327    0.0000000  0.00   -0.0004687    0.0005520   -0.0000000
 H   -8.8813940    7.3246633    0.0000000  0.00   -0.0006026    0.0007340   -0.0000000
 H   -7.5790711    9.4588755    0.0000000  0.00   -0.0008018   -0.0007339   -0.0000000
 H   -5.1583923    9.4210410    0.0000000  0.00   -0.0002059    0.0007777   -0.0000000
 H   -8.9333089    4.9213275    0.0000000  0.00    0.0000857    0.0001415   -0.0000000
 H   -9.0181007    2.5271375    0.0000000  0.00   -0.0003779    0.0006571   -0.0000000
 H   -9.0565626    0.0000000    0.0000000  0.00   -0.0001333   -0.0000000   -0.0000000
 H   -3.2450158    9.3417932    0.0000000  0.00    0.0003936    0.0006180   -0.0000000
 H   -0.8726900    9.2351106    0.0000000  0.00   -0.0002660    0.0002851   -0.0000000
 C    7.1155951    6.0800844    0.0000000  0.00   -0.0003137   -0.0000574   -0.0000000
 C    5.6812449    6.0429304    0.0000000  0.00   -0.0005297   -0.0005549   -0.0000000
 C    7.7891042    7.3230066    0.0000000  0.00   -0.0007894   -0.0000808   -0.0000000
 C    4.9641828    7.2546985    0.0000000  0.00    0.0003426    0.0005364   -0.0000000
 C    7.0710904    8.4917301    0.0000000  0.00   -0.0005294   -0.0008600   -0.0000000
 C    5.6787559    8.4604264    0.0000000  0.00    0.0001793   -0.0000508   -0.0000000
 C    7.1884441    3.6548516    0.0000000  0.00    0.0000487    0.0002169   -0.0000000
 C    5.7463868    3.6210103    0.0000000  0.00   -0.0007454    0.0000176   -0.0000000
 C    7.8394655    4.8896055    0.0000000  0.00   -0.0000834   -0.0001610   -0.0000000
 C    4.9923761    4.7994103    0.0000000  0.00    0.0009706    0.0001220   -0.0000000
 C    7.2843037    1.2262147    0.0000000  0.00   -0.0004767    0.0000088   -0.0000000
 C    5.8462895    1.2171400    0.0000000  0.00    0.0008243    0.0007401   -0.0000000
 C    7.9293401    2.4660343    0.0000000  0.00    0.0004040    0.0006507   -0.0000000
 C    5.0759477    2.3906753    0.0000000  0.00    0.0000075   -0.0003584   -0.0000000
 C    3.5578792    4.7367340    0.0000000  0.00   -0.0012746   -0.0005683   -0.0000000
 C    2.8330834    5.9443599    0.0000000  0.00    0.0003377    0.0002789   -0.0000000
 C    3.5178424    7.1934835    0.0000000  0.00   -0.0000962   -0.0006136   -0.0000000
 C    3.6387964    2.3443968    0.0000000  0.00   -0.0000637    0.0008677   -0.0000000
 C    2.8600653    3.4978539    0.0000000  0.00    0.0011188   -0.0005588   -0.0000000
 C    2.9780954    1.1213293    0.0000000  0.00    0.0002931   -0.0001781   -0.0000000
 C    1.4145079    5.8563224    0.0000000  0.00   -0.0005963    0.0000029   -0.0000000
 C    0.7134323    7.0793432    0.0000000  0.00    0.0009261    0.0008808   -0.0000000
 C    2.7675772    8.3671175    0.0000000  0.00    0.0008019    0.0000022   -0.0000000
 C    1.4082719    8.3006026    0.0000000  0.00    0.0006352    0.0006933   -0.0000000
 C    1.4181459    3.3363069    0.0000000  0.00    0.0002540    0.0001277   -0.0000000
 C    0.7101982    4.5776169    0.0000000  0.00    0.0005578    0.0005319   -0.0000000
 C    1.5783589    0.7944053    0.0000000  0.00    0.0008258    0.0001285   -0.0000000
 C    0.7325328    1.9980327    0.0000000  0.00    0.0004687    0.0005520   -0.0000000
 H    8.8813940    7.3246633    0.0000000  0.00    0.0006026    0.0007340   -0.0000000
 H    7.5790711    9.4588755    0.0000000  0.00    0.0008018   -0.0007339   -0.0000000
 H    5.1583923    9.4210410    0.0000000  0.00    0.0002059    0.0007777   -0.0000000
 H    8.9333089    4.9213275    0.0000000  0.00   -0.0000857    0.0001415   -0.0000000
 H    9.0181007    2.5271375    0.0000000  0.00    0.0003779    0.0006571   -0.0000000
 H    3.2450158    9.3417932    0.0000000  0.00   -0.0003936    0.0006180   -0.0000000
 H    0.8726900    9.2351106    0.0000000  0.00    0.0002660    0.0002851   -0.0000000
 C   -7.1155951   -6.0800844    0.0000000  0.00    0.0003137    0.0000574   -0.0000000
 C   -5.6812449   -6.0429304    0.0000000  0.00    0.0005297    0.0005549   -0.0000000
 C   -7.7891042   -7.3230066    0.0000000  0.00    0.0007894    0.0000808   -0.0000000
 C   -4.9641828   -7.2546985    0.0000000  0.00   -0.0003426   -0.0005364   -0.0000000
 C   -7.0710904   -8.4917301    0.0000000  0.00    0.0005294    0.0008600   -0.0000000
 C   -5.6787559   -8.4604264    0.0000000  0.00   -0.0001793    0.0000508   -0.0000000
 C   -7.1884441   -3.6548516    0.0000000  0.00   -0.0000487   -0.0002169   -0.0000000
 C   -5.7463868   -3.6210103    0.0000000  0.00    0.0007454   -0.0000176   -0.0000000
 C   -7.8394655   -4.8896055    0.0000000  0.00    0.0000834    0.0001610   -0.0000000
 C   -4.9923761   -4.7994103    0.0000000  0.00   -0.0009706   -0.0001220   -0.0000000
 C   -7.2843037   -1.2262147    0.0000000  0.00    0.0004767   -0.0000088   -0.0000000
 C   -5.8462895   -1.2171400    0.0000000  0.00   -0.0008243   -0.0007401   -0.0000000
 C   -7.9293401   -2.4660343    0.0000000  0.00   -0.0004040   -0.0006507   -0.0000000
 C   -5.0759477   -2.3906753    0.0000000  0.00   -0.0000075    0.0003584   -0.0000000
 C   -3.5578792   -4.7367340    0.0000000  0.00    0.0012746    0.0005683   -0.0000000
 C   -2.8330834   -5.9443599    0.0000000  0.00   -0.0003377   -0.0002789   -0.0000000
 C   -3.5178424   -7.1934835    0.0000000  0.00    0.0000962    0.0006136   -0.0000000
 C   -3.6387964   -2.3443968    0.0000000  0.00    0.0000637   -0.0008677   -0.0000000
 C   -2.8600653   -3.4978539    0.0000000  0.00   -0.0011188    0.0005588   -0.0000000
 C   -2.9780954   -1.1213293    0.0000000  0.00   -0.0002931    0.0001781   -0.0000000
 C   -1.4145079   -5.8563224    0.0000000  0.00    0.0005963   -0.0000029   -0.0000000
 C   -0.7134323   -7.0793432    0.0000000  0.00   -0.0009261   -0.0008808   -0.0000000
 C   -2.7675772   -8.3671175    0.0000000  0.00   -0.0008019   -0.0000022   -0.0000000
 C   -1.4082719   -8.3006026    0.0000000  0.00   -0.0006352   -0.0006933   -0.0000000
 C   -1.4181459   -3.3363069    0.0000000  0.00   -0.0002540   -0.0001277   -0.0000000
 C   -0.7101982   -4.5776169    0.0000000  0.00   -0.0005578   -0.0005319   -0.0000000
 C   -1.5783589   -0.7944053    0.0000000  0.00   -0.0008258   -0.0001285   -0.0000000
 C   -0.7325328   -1.9980327    0.0000000  0.00   -0.0004687   -0.0005520   -0.0000000
 H   -8.8813940   -7.3246633    0.0000000  0.00   -0.0006026   -0.0007340   -0.0000000
 H   -7.5790711   -9.4588755    0.0000000  0.00   -0.0008018    0.0007339   -0.0000000
 H   -5.1583923   -9.4210410    0.0000000  0.00   -0.0002059   -0.0007777   -0.0000000
 H   -8.9333089   -4.9213275    0.0000000  0.00    0.0000857   -0.0001415   -0.0000000
 H   -9.0181007   -2.5271375    0.0000000  0.00   -0.0003779   -0.0006571   -0.0000000
 H   -3.2450158   -9.3417932    0.0000000  0.00    0.0003936   -0.0006180   -0.0000000
 H   -0.8726900   -9.2351106    0.0000000  0.00   -0.0002660   -0.0002851   -0.0000000
