148
 Energy =   -4513.3896970440
 C    7.1213049   -6.0990558    0.0000000  0.00   -0.0001000    0.0005066   -0.0000000
 C    5.6838617   -6.0613235    0.0000000  0.00    0.0007273    0.0001094   -0.0000000
 C    7.7861761   -7.3450910    0.0000000  0.00    0.0012912    0.0002623   -0.0000000
 C    4.9614655   -7.2716294    0.0000000  0.00    0.0011618    0.0012492   -0.0000000
 C    7.0626103   -8.5172850    0.0000000  0.00    0.0004563   -0.0001734   -0.0000000
 C    5.6718620   -8.4854223    0.0000000  0.00    0.0000348   -0.0004614   -0.0000000
 C    7.1901106   -3.6634250    0.0000000  0.00    0.0005332    0.0003803   -0.0000000
 C    5.7463180   -3.6281258    0.0000000  0.00    0.0003410   -0.0011418   -0.0000000
 C    7.8402699   -4.9001687    0.0000000  0.00    0.0006508    0.0002260   -0.0000000
 C    4.9920072   -4.8135231    0.0000000  0.00    0.0000229    0.0009135   -0.0000000
 C    7.2688862   -1.2273475    0.0000000  0.00    0.0004396   -0.0003539   -0.0000000
 C    5.8364984   -1.2181403    0.0000000  0.00   -0.0004678   -0.0007344   -0.0000000
 C    7.9204683   -2.4659735    0.0000000  0.00   -0.0004415   -0.0002349   -0.0000000
 C    5.0724991   -2.3998569    0.0000000  0.00    0.0000347    0.0001953   -0.0000000
 C    7.9563106    0.0000000    0.0000000  0.00    0.0007423   -0.0000000   -0.0000000
 C    5.1590386    0.0000000    0.0000000  0.00    0.0002183   -0.0000000   -0.0000000
 C    3.5623160   -4.7507934    0.0000000  0.00    0.0006802    0.0000605   -0.0000000
 C    2.8365784   -5.9584957    0.0000000  0.00    0.0004949    0.0000151   -0.0000000
 C    3.5186765   -7.2062289    0.0000000  0.00    0.0000491   -0.0000069   -0.0000000
 C    3.6358498   -2.3538094    0.0000000  0.00   -0.0000506   -0.0007372   -0.0000000
 C    2.8605198   -3.5064451    0.0000000  0.00   -0.0005292   -0.0000842   -0.0000000
 C    3.7696645    0.0000000    0.0000000  0.00    0.0000534   -0.0000000   -0.0000000
 C    2.9727159   -1.1247407    0.0000000  0.00   -0.0001114   -0.0000367   -0.0000000
 C    1.4144944   -5.8709653    0.0000000  0.00    0.0007942   -0.0004559   -0.0000000
 C    0.7119221   -7.0914786    0.0000000  0.00   -0.0002378    0.0010716   -0.0000000
 C    2.7620454   -8.3819333    0.0000000  0.00    0.0005948    0.0002201   -0.0000000
 C    1.4067573   -8.3196179    0.0000000  0.00   -0.0004275   -0.0000561   -0.0000000
 C    1.4199031   -3.3457688    0.0000000  0.00    0.0002972   -0.0004683   -0.0000000
 C    0.7082778   -4.5908895    0.0000000  0.00   -0.0008763    0.0006353   -0.0000000
 C    1.5793546   -0.8039359    0.0000000  0.00   -0.0002961    0.0008558   -0.0000000
 C    0.7336115   -2.0102785    0.0000000  0.00   -0.0004066    0.0004054   -0.0000000
 H    8.8699584   -7.3614124    0.0000000  0.00    0.0003965    0.0005097   -0.0000000
 H    7.5737363   -9.4730471    0.0000000  0.00    0.0008678   -0.0000366   -0.0000000
 H    5.1429709   -9.4270755    0.0000000  0.00    0.0002166   -0.0004482   -0.0000000
 H    8.9245209   -4.9313294    0.0000000  0.00   -0.0002129    0.0006908   -0.0000000
 H    9.0045234   -2.5073573    0.0000000  0.00    0.0004376    0.0007580   -0.0000000
 H    9.0412700    0.0000000    0.0000000  0.00    0.0001308   -0.0000000   -0.0000000
 H    3.2395089   -9.3502811    0.0000000  0.00    0.0001970   -0.0001214   -0.0000000
 H    0.8677891   -9.2511665    0.0000000  0.00   -0.0003910   -0.0006980   -0.0000000
 C   -7.1213049    6.0990558    0.0000000  0.00    0.0001000   -0.0005066   -0.0000000
 C   -5.6838617    6.0613235    0.0000000  0.00   -0.0007273   -0.0001094   -0.0000000
 C   -7.7861761    7.3450910    0.0000000  0.00   -0.0012912   -0.0002623   -0.0000000
 C   -4.9614655    7.2716294    0.0000000  0.00   -0.0011618   -0.0012492   -0.0000000
 C   -7.0626103    8.5172850    0.0000000  0.00   -0.0004563    0.0001734   -0.0000000
 C   -5.6718620    8.4854223    0.0000000  0.00   -0.0000348    0.0004614   -0.0000000
 C   -7.1901106    3.6634250    0.0000000  0.00   -0.0005332   -0.0003803   -0.0000000
 C   -5.7463180    3.6281258    0.0000000  0.00   -0.0003410    0.0011418   -0.0000000
 C   -7.8402699    4.9001687    0.0000000  0.00   -0.0006508   -0.0002260   -0.0000000
 C   -4.9920072    4.8135231    0.0000000  0.00   -0.0000229   -0.0009135   -0.0000000
 C   -7.2688862    1.2273475    0.0000000  0.00   -0.0004396    0.0003539   -0.0000000
 C   -5.8364984    1.2181403    0.0000000  0.00    0.0004678    0.0007344   -0.0000000
 C   -7.9204683    2.4659735    0.0000000  0.00    0.0004415    0.0002349   -0.0000000
 C   -5.0724991    2.3998569    0.0000000  0.00   -0.0000347   -0.0001953   -0.0000000
 C   -7.9563106    0.0000000    0.0000000  0.00   -0.0007423   -0.0000000   -0.0000000
 C   -5.1590386    0.0000000    0.0000000  0.00   -0.0002183   -0.0000000   -0.0000000
 C   -3.5623160    4.7507934    0.0000000  0.00   -0.0006802   -0.0000605   -0.0000000
 C   -2.8365784    5.9584957    0.0000000  0.00   -0.0004949   -0.0000151   -0.0000000
 C   -3.5186765    7.2062289    0.0000000  0.00   -0.0000491    0.0000069   -0.0000000
 C   -3.6358498    2.3538094    0.0000000  0.00    0.0000506    0.0007372   -0.0000000
 C   -2.8605198    3.5064451    0.0000000  0.00    0.0005292    0.0000842   -0.0000000
 C   -3.7696645    0.0000000    0.0000000  0.00   -0.0000534   -0.0000000   -0.0000000
 C   -2.9727159    1.1247407    0.0000000  0.00    0.0001114    0.0000367   -0.0000000
 C   -1.4144944    5.8709653    0.0000000  0.00   -0.0007942    0.0004559   -0.0000000
 C   -0.7119221    7.0914786    0.0000000  0.00    0.0002378   -0.0010716   -0.0000000
 C   -2.7620454    8.3819333    0.0000000  0.00   -0.0005948   -0.0002201   -0.0000000
 C   -1.4067573    8.3196179    0.0000000  0.00    0.0004275    0.0000561   -0.0000000
 C   -1.4199031    3.3457688    0.0000000  0.00   -0.0002972    0.0004683   -0.0000000
 C   -0.7082778    4.5908895    0.0000000  0.00    0.0008763   -0.0006353   -0.0000000
 C   -1.5793546    0.8039359    0.0000000  0.00    0.0002961   -0.0008558   -0.0000000
 C   -0.7336115    2.0102785    0.0000000  0.00    0.0004066   -0.0004054   -0.0000000
 H   -8.8699584    7.3614124    0.0000000  0.00   -0.0003965   -0.0005097   -0.0000000
 H   -7.5737363    9.4730471    0.0000000  0.00   -0.0008678    0.0000366   -0.0000000
 H   -5.1429709    9.4270755    0.0000000  0.00   -0.0002166    0.0004482   -0.0000000
 H   -8.9245209    4.9313294    0.0000000  0.00    0.0002129   -0.0006908   -0.0000000
 H   -9.0045234    2.5073573    0.0000000  0.00   -0.0004376   -0.0007580   -0.0000000
 H   -9.0412700    0.0000000    0.0000000  0.00   -0.0001308   -0.0000000   -0.0000000
 H   -3.2395089    9.3502811    0.0000000  0.00   -0.0001970    0.0001214   -0.0000000
 H   -0.8677891    9.2511665    0.0000000  0.00    0.0003910    0.0006980   -0.0000000
 C    7.1213049    6.0990558    0.0000000  0.00   -0.0001000   -0.0005066   -0.0000000
 C    5.6838617    6.0613235    0.0000000  0.00    0.0007273   -0.0001094   -0.0000000
 C    7.7861761    7.3450910    0.0000000  0.00    0.0012912   -0.0002623   -0.0000000
 C    4.9614655    7.2716294    0.0000000  0.00    0.0011618   -0.0012492   -0.0000000
 C    7.0626103    8.5172850    0.0000000  0.00    0.0004563    0.0001734   -0.0000000
 C    5.6718620    8.4854223    0.0000000  0.00    0.0000348    0.0004614   -0.0000000
 C    7.1901106    3.6634250    0.0000000  0.00    0.0005332   -0.0003803   -0.0000000
 C    5.7463180    3.6281258    0.0000000  0.00    0.0003410    0.0011418   -0.0000000
 C    7.8402699    4.9001687    0.0000000  0.00    0.0006508   -0.0002260   -0.0000000
 C    4.9920072    4.8135231    0.0000000  0.00    0.0000229   -0.0009135   -0.0000000
 C    7.2688862    1.2273475    0.0000000  0.00    0.0004396    0.0003539   -0.0000000
 C    5.8364984    1.2181403    0.0000000  0.00   -0.0004678    0.0007344   -0.0000000
 C    7.9204683    2.4659735    0.0000000  0.00   -0.0004415    0.0002349   -0.0000000
 C    5.0724991    2.3998569    0.0000000  0.00    0.0000347   -0.0001953   -0.0000000
 C    3.5623160    4.7507934    0.0000000  0.00    0.0006802   -0.0000605   -0.0000000
 C    2.8365784    5.9584957    0.0000000  0.00    0.0004949   -0.0000151   -0.0000000
 C    3.5186765    7.2062289    0.0000000  0.00    0.0000491    0.0000069   -0.0000000
 C    3.6358498    2.3538094    0.0000000  0.00   -0.0000506    0.0007372   -0.0000000
 C    2.8605198    3.5064451    0.0000000  0.00   -0.0005292    0.0000842   -0.0000000
 C    2.9727159    1.1247407    0.0000000  0.00   -0.0001114    0.0000367   -0.0000000
 C    1.4144944    5.8709653    0.0000000  0.00    0.0007942    0.0004559   -0.0000000
 C    0.7119221    7.0914786    0.0000000  0.00   -0.0002378   -0.0010716   -0.0000000
 C    2.7620454    8.3819333    0.0000000  0.00    0.0005948   -0.0002201   -0.0000000
 C    1.4067573    8.3196179    0.0000000  0.00   -0.0004275    0.0000561   -0.0000000
 C    1.4199031    3.3457688    0.0000000  0.00    0.0002972    0.0004683   -0.0000000
 C    0.7082778    4.5908895    0.0000000  0.00   -0.0008763   -0.0006353   -0.0000000
 C    1.5793546    0.8039359    0.0000000  0.00   -0.0002961   -0.0008558   -0.0000000
 C    0.7336115    2.0102785    0.0000000  0.00   -0.0004066   -0.0004054   -0.0000000
 H    8.8699584    7.3614124    0.0000000  0.00    0.0003965   -0.0005097   -0.0000000
 H    7.5737363    9.4730471    0.0000000  0.00    0.0008678    0.0000366   -0.0000000
 H    5.1429709    9.4270755    0.0000000  0.00    0.0002166    0.0004482   -0.0000000
 H    8.9245209    4.9313294    0.0000000  0.00   -0.0002129   -0.0006908   -0.0000000
 H    9.0045234    2.5073573    0.0000000  0.00    0.0004376   -0.0007580   -0.0000000
 H    3.2395089    9.3502811    0.0000000  0.00    0.0001970    0.0001214   -0.0000000
 H    0.8677891    9.2511665    0.0000000  0.00   -0.0003910    0.0006980   -0.0000000
 C   -7.1213049   -6.0990558    0.0000000  0.00    0.0001000    0.0005066   -0.0000000
 C   -5.6838617   -6.0613235    0.0000000  0.00   -0.0007273    0.0001094   -0.0000000
 C   -7.7861761   -7.3450910    0.0000000  0.00   -0.0012912    0.0002623   -0.0000000
 C   -4.9614655   -7.2716294    0.0000000  0.00   -0.0011618    0.0012492   -0.0000000
 C   -7.0626103   -8.5172850    0.0000000  0.00   -0.0004563   -0.0001734   -0.0000000
 C   -5.6718620   -8.4854223    0.0000000  0.00   -0.0000348   -0.0004614   -0.0000000
 C   -7.1901106   -3.6634250    0.0000000  0.00   -0.0005332    0.0003803   -0.0000000
 C   -5.7463180   -3.6281258    0.0000000  0.00   -0.0003410   -0.0011418   -0.0000000
 C   -7.8402699   -4.9001687    0.0000000  0.00   -0.0006508    0.0002260   -0.0000000
 C   -4.9920072   -4.8135231    0.0000000  0.00   -0.0000229    0.0009135   -0.0000000
 C   -7.2688862   -1.2273475    0.0000000  0.00   -0.0004396   -0.0003539   -0.0000000
 C   -5.8364984   -1.2181403    0.0000000  0.00    0.0004678   -0.0007344   -0.0000000
 C   -7.9204683   -2.4659735    0.0000000  0.00    0.0004415   -0.0002349   -0.0000000
 C   -5.0724991   -2.3998569    0.0000000  0.00   -0.0000347    0.0001953   -0.0000000
 C   -3.5623160   -4.7507934    0.0000000  0.00   -0.0006802    0.0000605   -0.0000000
 C   -2.8365784   -5.9584957    0.0000000  0.00   -0.0004949    0.0000151   -0.0000000
 C   -3.5186765   -7.2062289    0.0000000  0.00   -0.0000491   -0.0000069   -0.0000000
 C   -3.6358498   -2.3538094    0.0000000  0.00    0.0000506   -0.0007372   -0.0000000
 C   -2.8605198   -3.5064451    0.0000000  0.00    0.0005292   -0.0000842   -0.0000000
 C   -2.9727159   -1.1247407    0.0000000  0.00    0.0001114   -0.0000367   -0.0000000
 C   -1.4144944   -5.8709653    0.0000000  0.00   -0.0007942   -0.0004559   -0.0000000
 C   -0.7119221   -7.0914786    0.0000000  0.00    0.0002378    0.0010716   -0.0000000
 C   -2.7620454   -8.3819333    0.0000000  0.00   -0.0005948    0.0002201   -0.0000000
 C   -1.4067573   -8.3196179    0.0000000  0.00    0.0004275   -0.0000561   -0.0000000
 C   -1.4199031   -3.3457688    0.0000000  0.00   -0.0002972   -0.0004683   -0.0000000
 C   -0.7082778   -4.5908895    0.0000000  0.00    0.0008763    0.0006353   -0.0000000
 C   -1.5793546   -0.8039359    0.0000000  0.00    0.0002961    0.0008558   -0.0000000
 C   -0.7336115   -2.0102785    0.0000000  0.00    0.0004066    0.0004054   -0.0000000
 H   -8.8699584   -7.3614124    0.0000000  0.00   -0.0003965    0.0005097   -0.0000000
 H   -7.5737363   -9.4730471    0.0000000  0.00   -0.0008678   -0.0000366   -0.0000000
 H   -5.1429709   -9.4270755    0.0000000  0.00   -0.0002166   -0.0004482   -0.0000000
 H   -8.9245209   -4.9313294    0.0000000  0.00    0.0002129    0.0006908   -0.0000000
 H   -9.0045234   -2.5073573    0.0000000  0.00   -0.0004376    0.0007580   -0.0000000
 H   -3.2395089   -9.3502811    0.0000000  0.00   -0.0001970   -0.0001214   -0.0000000
 H   -0.8677891   -9.2511665    0.0000000  0.00    0.0003910   -0.0006980   -0.0000000
