148
 Energy =   -4513.3898891720
 C    7.1179650   -6.0998824    0.0000000  0.00   -0.0000644    0.0016956   -0.0000000
 C    5.6851497   -6.0580339    0.0000000  0.00   -0.0005798   -0.0004910   -0.0000000
 C    7.7764850   -7.3481925    0.0000000  0.00   -0.0015368    0.0005032   -0.0000000
 C    4.9606996   -7.2633392    0.0000000  0.00    0.0001533    0.0001467   -0.0000000
 C    7.0506049   -8.5179622    0.0000000  0.00   -0.0011869    0.0003387   -0.0000000
 C    5.6582271   -8.4795732    0.0000000  0.00   -0.0008763   -0.0002041   -0.0000000
 C    7.2077226   -3.6642482    0.0000000  0.00   -0.0006068   -0.0002571   -0.0000000
 C    5.7626543   -3.6289020    0.0000000  0.00   -0.0008080   -0.0007508   -0.0000000
 C    7.8434352   -4.9037901    0.0000000  0.00    0.0002735   -0.0000178   -0.0000000
 C    5.0030102   -4.8038707    0.0000000  0.00   -0.0004121    0.0007805   -0.0000000
 C    7.3102098   -1.2260484    0.0000000  0.00   -0.0009674    0.0003938   -0.0000000
 C    5.8727280   -1.2175973    0.0000000  0.00   -0.0000024   -0.0003731   -0.0000000
 C    7.9438577   -2.4714061    0.0000000  0.00   -0.0002288   -0.0006141   -0.0000000
 C    5.0945342   -2.3936832    0.0000000  0.00   -0.0011303   -0.0005968   -0.0000000
 C    7.9933685    0.0000000    0.0000000  0.00   -0.0010016   -0.0000000   -0.0000000
 C    5.1926795    0.0000000    0.0000000  0.00   -0.0003831   -0.0000000   -0.0000000
 C    3.5652405   -4.7295966    0.0000000  0.00   -0.0005998   -0.0003221   -0.0000000
 C    2.8361339   -5.9397079    0.0000000  0.00   -0.0013700   -0.0005980   -0.0000000
 C    3.5136378   -7.1881958    0.0000000  0.00    0.0008624    0.0004889   -0.0000000
 C    3.6560338   -2.3408180    0.0000000  0.00   -0.0009771    0.0008842   -0.0000000
 C    2.8723731   -3.4933874    0.0000000  0.00   -0.0005200    0.0004473   -0.0000000
 C    3.8022110    0.0000000    0.0000000  0.00   -0.0015160   -0.0000000   -0.0000000
 C    2.9969185   -1.1131328    0.0000000  0.00    0.0004266   -0.0017596   -0.0000000
 C    1.4179029   -5.8464929    0.0000000  0.00    0.0011845    0.0013577   -0.0000000
 C    0.7145361   -7.0661767    0.0000000  0.00   -0.0007650   -0.0002947   -0.0000000
 C    2.7588653   -8.3585289    0.0000000  0.00    0.0001963   -0.0003657   -0.0000000
 C    1.4008856   -8.2909901    0.0000000  0.00   -0.0001236    0.0002523   -0.0000000
 C    1.4171293   -3.3221467    0.0000000  0.00    0.0002084    0.0003892   -0.0000000
 C    0.7130628   -4.5631464    0.0000000  0.00   -0.0012767    0.0007206   -0.0000000
 C    1.5796801   -0.7577002    0.0000000  0.00   -0.0000042    0.0008354   -0.0000000
 C    0.7253511   -1.9920726    0.0000000  0.00   -0.0005160   -0.0007401   -0.0000000
 H    8.8604621   -7.3685321    0.0000000  0.00   -0.0021350   -0.0000438   -0.0000000
 H    7.5586772   -9.4754235    0.0000000  0.00   -0.0014752    0.0014979   -0.0000000
 H    5.1254046   -9.4188146    0.0000000  0.00   -0.0005498   -0.0014187   -0.0000000
 H    8.9274799   -4.9437257    0.0000000  0.00    0.0003832    0.0002327   -0.0000000
 H    9.0271552   -2.5239146    0.0000000  0.00    0.0005340    0.0011057   -0.0000000
 H    9.0776970    0.0000000    0.0000000  0.00   -0.0002590   -0.0000000   -0.0000000
 H    3.2329249   -9.3281109    0.0000000  0.00    0.0002622    0.0002629   -0.0000000
 H    0.8612506   -9.2218182    0.0000000  0.00   -0.0002146   -0.0011406   -0.0000000
 C   -7.1179650    6.0998824    0.0000000  0.00    0.0000644   -0.0016956   -0.0000000
 C   -5.6851497    6.0580339    0.0000000  0.00    0.0005798    0.0004910   -0.0000000
 C   -7.7764850    7.3481925    0.0000000  0.00    0.0015368   -0.0005032   -0.0000000
 C   -4.9606996    7.2633392    0.0000000  0.00   -0.0001533   -0.0001467   -0.0000000
 C   -7.0506049    8.5179622    0.0000000  0.00    0.0011869   -0.0003387   -0.0000000
 C   -5.6582271    8.4795732    0.0000000  0.00    0.0008763    0.0002041   -0.0000000
 C   -7.2077226    3.6642482    0.0000000  0.00    0.0006068    0.0002571   -0.0000000
 C   -5.7626543    3.6289020    0.0000000  0.00    0.0008080    0.0007508   -0.0000000
 C   -7.8434352    4.9037901    0.0000000  0.00   -0.0002735    0.0000178   -0.0000000
 C   -5.0030102    4.8038707    0.0000000  0.00    0.0004121   -0.0007805   -0.0000000
 C   -7.3102098    1.2260484    0.0000000  0.00    0.0009674   -0.0003938   -0.0000000
 C   -5.8727280    1.2175973    0.0000000  0.00    0.0000024    0.0003731   -0.0000000
 C   -7.9438577    2.4714061    0.0000000  0.00    0.0002288    0.0006141   -0.0000000
 C   -5.0945342    2.3936832    0.0000000  0.00    0.0011303    0.0005968   -0.0000000
 C   -7.9933685    0.0000000    0.0000000  0.00    0.0010016   -0.0000000   -0.0000000
 C   -5.1926795    0.0000000    0.0000000  0.00    0.0003831   -0.0000000   -0.0000000
 C   -3.5652405    4.7295966    0.0000000  0.00    0.0005998    0.0003221   -0.0000000
 C   -2.8361339    5.9397079    0.0000000  0.00    0.0013700    0.0005980   -0.0000000
 C   -3.5136378    7.1881958    0.0000000  0.00   -0.0008624   -0.0004889   -0.0000000
 C   -3.6560338    2.3408180    0.0000000  0.00    0.0009771   -0.0008842   -0.0000000
 C   -2.8723731    3.4933874    0.0000000  0.00    0.0005200   -0.0004473   -0.0000000
 C   -3.8022110    0.0000000    0.0000000  0.00    0.0015160   -0.0000000   -0.0000000
 C   -2.9969185    1.1131328    0.0000000  0.00   -0.0004266    0.0017596   -0.0000000
 C   -1.4179029    5.8464929    0.0000000  0.00   -0.0011845   -0.0013577   -0.0000000
 C   -0.7145361    7.0661767    0.0000000  0.00    0.0007650    0.0002947   -0.0000000
 C   -2.7588653    8.3585289    0.0000000  0.00   -0.0001963    0.0003657   -0.0000000
 C   -1.4008856    8.2909901    0.0000000  0.00    0.0001236   -0.0002523   -0.0000000
 C   -1.4171293    3.3221467    0.0000000  0.00   -0.0002084   -0.0003892   -0.0000000
 C   -0.7130628    4.5631464    0.0000000  0.00    0.0012767   -0.0007206   -0.0000000
 C   -1.5796801    0.7577002    0.0000000  0.00    0.0000042   -0.0008354   -0.0000000
 C   -0.7253511    1.9920726    0.0000000  0.00    0.0005160    0.0007401   -0.0000000
 H   -8.8604621    7.3685321    0.0000000  0.00    0.0021350    0.0000438   -0.0000000
 H   -7.5586772    9.4754235    0.0000000  0.00    0.0014752   -0.0014979   -0.0000000
 H   -5.1254046    9.4188146    0.0000000  0.00    0.0005498    0.0014187   -0.0000000
 H   -8.9274799    4.9437257    0.0000000  0.00   -0.0003832   -0.0002327   -0.0000000
 H   -9.0271552    2.5239146    0.0000000  0.00   -0.0005340   -0.0011057   -0.0000000
 H   -9.0776970    0.0000000    0.0000000  0.00    0.0002590   -0.0000000   -0.0000000
 H   -3.2329249    9.3281109    0.0000000  0.00   -0.0002622   -0.0002629   -0.0000000
 H   -0.8612506    9.2218182    0.0000000  0.00    0.0002146    0.0011406   -0.0000000
 C    7.1179650    6.0998824    0.0000000  0.00   -0.0000644   -0.0016956   -0.0000000
 C    5.6851497    6.0580339    0.0000000  0.00   -0.0005798    0.0004910   -0.0000000
 C    7.7764850    7.3481925    0.0000000  0.00   -0.0015368   -0.0005032   -0.0000000
 C    4.9606996    7.2633392    0.0000000  0.00    0.0001533   -0.0001467   -0.0000000
 C    7.0506049    8.5179622    0.0000000  0.00   -0.0011869   -0.0003387   -0.0000000
 C    5.6582271    8.4795732    0.0000000  0.00   -0.0008763    0.0002041   -0.0000000
 C    7.2077226    3.6642482    0.0000000  0.00   -0.0006068    0.0002571   -0.0000000
 C    5.7626543    3.6289020    0.0000000  0.00   -0.0008080    0.0007508   -0.0000000
 C    7.8434352    4.9037901    0.0000000  0.00    0.0002735    0.0000178   -0.0000000
 C    5.0030102    4.8038707    0.0000000  0.00   -0.0004121   -0.0007805   -0.0000000
 C    7.3102098    1.2260484    0.0000000  0.00   -0.0009674   -0.0003938   -0.0000000
 C    5.8727280    1.2175973    0.0000000  0.00   -0.0000024    0.0003731   -0.0000000
 C    7.9438577    2.4714061    0.0000000  0.00   -0.0002288    0.0006141   -0.0000000
 C    5.0945342    2.3936832    0.0000000  0.00   -0.0011303    0.0005968   -0.0000000
 C    3.5652405    4.7295966    0.0000000  0.00   -0.0005998    0.0003221   -0.0000000
 C    2.8361339    5.9397079    0.0000000  0.00   -0.0013700    0.0005980   -0.0000000
 C    3.5136378    7.1881958    0.0000000  0.00    0.0008624   -0.0004889   -0.0000000
 C    3.6560338    2.3408180    0.0000000  0.00   -0.0009771   -0.0008842   -0.0000000
 C    2.8723731    3.4933874    0.0000000  0.00   -0.0005200   -0.0004473   -0.0000000
 C    2.9969185    1.1131328    0.0000000  0.00    0.0004266    0.0017596   -0.0000000
 C    1.4179029    5.8464929    0.0000000  0.00    0.0011845   -0.0013577   -0.0000000
 C    0.7145361    7.0661767    0.0000000  0.00   -0.0007650    0.0002947   -0.0000000
 C    2.7588653    8.3585289    0.0000000  0.00    0.0001963    0.0003657   -0.0000000
 C    1.4008856    8.2909901    0.0000000  0.00   -0.0001236   -0.0002523   -0.0000000
 C    1.4171293    3.3221467    0.0000000  0.00    0.0002084   -0.0003892   -0.0000000
 C    0.7130628    4.5631464    0.0000000  0.00   -0.0012767   -0.0007206   -0.0000000
 C    1.5796801    0.7577002    0.0000000  0.00   -0.0000042   -0.0008354   -0.0000000
 C    0.7253511    1.9920726    0.0000000  0.00   -0.0005160    0.0007401   -0.0000000
 H    8.8604621    7.3685321    0.0000000  0.00   -0.0021350    0.0000438   -0.0000000
 H    7.5586772    9.4754235    0.0000000  0.00   -0.0014752   -0.0014979   -0.0000000
 H    5.1254046    9.4188146    0.0000000  0.00   -0.0005498    0.0014187   -0.0000000
 H    8.9274799    4.9437257    0.0000000  0.00    0.0003832   -0.0002327   -0.0000000
 H    9.0271552    2.5239146    0.0000000  0.00    0.0005340   -0.0011057   -0.0000000
 H    3.2329249    9.3281109    0.0000000  0.00    0.0002622   -0.0002629   -0.0000000
 H    0.8612506    9.2218182    0.0000000  0.00   -0.0002146    0.0011406   -0.0000000
 C   -7.1179650   -6.0998824    0.0000000  0.00    0.0000644    0.0016956   -0.0000000
 C   -5.6851497   -6.0580339    0.0000000  0.00    0.0005798   -0.0004910   -0.0000000
 C   -7.7764850   -7.3481925    0.0000000  0.00    0.0015368    0.0005032   -0.0000000
 C   -4.9606996   -7.2633392    0.0000000  0.00   -0.0001533    0.0001467   -0.0000000
 C   -7.0506049   -8.5179622    0.0000000  0.00    0.0011869    0.0003387   -0.0000000
 C   -5.6582271   -8.4795732    0.0000000  0.00    0.0008763   -0.0002041   -0.0000000
 C   -7.2077226   -3.6642482    0.0000000  0.00    0.0006068   -0.0002571   -0.0000000
 C   -5.7626543   -3.6289020    0.0000000  0.00    0.0008080   -0.0007508   -0.0000000
 C   -7.8434352   -4.9037901    0.0000000  0.00   -0.0002735   -0.0000178   -0.0000000
 C   -5.0030102   -4.8038707    0.0000000  0.00    0.0004121    0.0007805   -0.0000000
 C   -7.3102098   -1.2260484    0.0000000  0.00    0.0009674    0.0003938   -0.0000000
 C   -5.8727280   -1.2175973    0.0000000  0.00    0.0000024   -0.0003731   -0.0000000
 C   -7.9438577   -2.4714061    0.0000000  0.00    0.0002288   -0.0006141   -0.0000000
 C   -5.0945342   -2.3936832    0.0000000  0.00    0.0011303   -0.0005968   -0.0000000
 C   -3.5652405   -4.7295966    0.0000000  0.00    0.0005998   -0.0003221   -0.0000000
 C   -2.8361339   -5.9397079    0.0000000  0.00    0.0013700   -0.0005980   -0.0000000
 C   -3.5136378   -7.1881958    0.0000000  0.00   -0.0008624    0.0004889   -0.0000000
 C   -3.6560338   -2.3408180    0.0000000  0.00    0.0009771    0.0008842   -0.0000000
 C   -2.8723731   -3.4933874    0.0000000  0.00    0.0005200    0.0004473   -0.0000000
 C   -2.9969185   -1.1131328    0.0000000  0.00   -0.0004266   -0.0017596   -0.0000000
 C   -1.4179029   -5.8464929    0.0000000  0.00   -0.0011845    0.0013577   -0.0000000
 C   -0.7145361   -7.0661767    0.0000000  0.00    0.0007650   -0.0002947   -0.0000000
 C   -2.7588653   -8.3585289    0.0000000  0.00   -0.0001963   -0.0003657   -0.0000000
 C   -1.4008856   -8.2909901    0.0000000  0.00    0.0001236    0.0002523   -0.0000000
 C   -1.4171293   -3.3221467    0.0000000  0.00   -0.0002084    0.0003892   -0.0000000
 C   -0.7130628   -4.5631464    0.0000000  0.00    0.0012767    0.0007206   -0.0000000
 C   -1.5796801   -0.7577002    0.0000000  0.00    0.0000042    0.0008354   -0.0000000
 C   -0.7253511   -1.9920726    0.0000000  0.00    0.0005160   -0.0007401   -0.0000000
 H   -8.8604621   -7.3685321    0.0000000  0.00    0.0021350   -0.0000438   -0.0000000
 H   -7.5586772   -9.4754235    0.0000000  0.00    0.0014752    0.0014979   -0.0000000
 H   -5.1254046   -9.4188146    0.0000000  0.00    0.0005498   -0.0014187   -0.0000000
 H   -8.9274799   -4.9437257    0.0000000  0.00   -0.0003832    0.0002327   -0.0000000
 H   -9.0271552   -2.5239146    0.0000000  0.00   -0.0005340    0.0011057   -0.0000000
 H   -3.2329249   -9.3281109    0.0000000  0.00   -0.0002622    0.0002629   -0.0000000
 H   -0.8612506   -9.2218182    0.0000000  0.00    0.0002146   -0.0011406   -0.0000000
