148
 Energy =   -4513.0706558960
 C    7.1041861   -6.0918818    0.0000000  0.00    0.0037365   -0.0011560   -0.0000000
 C    5.6737004   -6.0520915    0.0000000  0.00   -0.0027524    0.0051558   -0.0000000
 C    7.7747429   -7.3349552    0.0000000  0.00    0.0006740    0.0014448   -0.0000000
 C    4.9545417   -7.2624841    0.0000000  0.00    0.0002816   -0.0005171   -0.0000000
 C    7.0562306   -8.5045542    0.0000000  0.00   -0.0003422   -0.0005696   -0.0000000
 C    5.6655744   -8.4725439    0.0000000  0.00    0.0040305    0.0020879   -0.0000000
 C    7.1870884   -3.6646593    0.0000000  0.00    0.0003666   -0.0017941   -0.0000000
 C    5.7483447   -3.6284982    0.0000000  0.00   -0.0002479    0.0027325   -0.0000000
 C    7.8305635   -4.8999657    0.0000000  0.00   -0.0032142    0.0023626   -0.0000000
 C    4.9903307   -4.8063729    0.0000000  0.00    0.0025031   -0.0043894   -0.0000000
 C    7.2906530   -1.2305367    0.0000000  0.00   -0.0046692    0.0002175   -0.0000000
 C    5.8512097   -1.2213605    0.0000000  0.00    0.0013445   -0.0015707   -0.0000000
 C    7.9302204   -2.4687259    0.0000000  0.00   -0.0028431    0.0013512   -0.0000000
 C    5.0796903   -2.3938662    0.0000000  0.00   -0.0040037    0.0022459   -0.0000000
 C    7.9786928    0.0000000    0.0000000  0.00   -0.0024287   -0.0000000   -0.0000000
 C    5.1707480    0.0000000    0.0000000  0.00   -0.0017052   -0.0000000   -0.0000000
 C    3.5569749   -4.7419929    0.0000000  0.00   -0.0000547    0.0034513   -0.0000000
 C    2.8307593   -5.9475053    0.0000000  0.00   -0.0007386   -0.0003690   -0.0000000
 C    3.5124148   -7.1995393    0.0000000  0.00    0.0016024    0.0003059   -0.0000000
 C    3.6420201   -2.3459219    0.0000000  0.00   -0.0005045   -0.0013508   -0.0000000
 C    2.8599136   -3.4980325    0.0000000  0.00   -0.0038533   -0.0026903   -0.0000000
 C    3.7824652    0.0000000    0.0000000  0.00   -0.0021899   -0.0000000   -0.0000000
 C    2.9811932   -1.1226827    0.0000000  0.00    0.0030203   -0.0029732   -0.0000000
 C    1.4120742   -5.8585652    0.0000000  0.00    0.0016900    0.0015809   -0.0000000
 C    0.7107032   -7.0820414    0.0000000  0.00   -0.0042627    0.0041869   -0.0000000
 C    2.7595173   -8.3746957    0.0000000  0.00   -0.0018931   -0.0002406   -0.0000000
 C    1.4044087   -8.3081437    0.0000000  0.00    0.0006823   -0.0039313   -0.0000000
 C    1.4201095   -3.3355641    0.0000000  0.00    0.0020178   -0.0012821   -0.0000000
 C    0.7087034   -4.5816477    0.0000000  0.00    0.0022691    0.0004582   -0.0000000
 C    1.5827895   -0.7979447    0.0000000  0.00    0.0017173    0.0001783   -0.0000000
 C    0.7341638   -1.9993954    0.0000000  0.00   -0.0047147   -0.0054327   -0.0000000
 H    8.8699061   -7.3378737    0.0000000  0.00    0.0003622   -0.0021328   -0.0000000
 H    7.5670356   -9.4711888    0.0000000  0.00   -0.0010032    0.0001381   -0.0000000
 H    5.1399168   -9.4310972    0.0000000  0.00    0.0028697   -0.0008494   -0.0000000
 H    8.9220365   -4.9460062    0.0000000  0.00   -0.0004484    0.0006461   -0.0000000
 H    9.0150233   -2.5284559    0.0000000  0.00   -0.0022217    0.0020787   -0.0000000
 H    9.0628505    0.0000000    0.0000000  0.00   -0.0017813   -0.0000000   -0.0000000
 H    3.2339271   -9.3530718    0.0000000  0.00   -0.0003488   -0.0022899   -0.0000000
 H    0.8690998   -9.2480926    0.0000000  0.00    0.0025790   -0.0013926   -0.0000000
 C   -7.1041861    6.0918818    0.0000000  0.00   -0.0037365    0.0011560   -0.0000000
 C   -5.6737004    6.0520915    0.0000000  0.00    0.0027524   -0.0051558   -0.0000000
 C   -7.7747429    7.3349552    0.0000000  0.00   -0.0006740   -0.0014448   -0.0000000
 C   -4.9545417    7.2624841    0.0000000  0.00   -0.0002816    0.0005171   -0.0000000
 C   -7.0562306    8.5045542    0.0000000  0.00    0.0003422    0.0005696   -0.0000000
 C   -5.6655744    8.4725439    0.0000000  0.00   -0.0040305   -0.0020879   -0.0000000
 C   -7.1870884    3.6646593    0.0000000  0.00   -0.0003666    0.0017941   -0.0000000
 C   -5.7483447    3.6284982    0.0000000  0.00    0.0002479   -0.0027325   -0.0000000
 C   -7.8305635    4.8999657    0.0000000  0.00    0.0032142   -0.0023626   -0.0000000
 C   -4.9903307    4.8063729    0.0000000  0.00   -0.0025031    0.0043894   -0.0000000
 C   -7.2906530    1.2305367    0.0000000  0.00    0.0046692   -0.0002175   -0.0000000
 C   -5.8512097    1.2213605    0.0000000  0.00   -0.0013445    0.0015707   -0.0000000
 C   -7.9302204    2.4687259    0.0000000  0.00    0.0028431   -0.0013512   -0.0000000
 C   -5.0796903    2.3938662    0.0000000  0.00    0.0040037   -0.0022459   -0.0000000
 C   -7.9786928    0.0000000    0.0000000  0.00    0.0024287   -0.0000000   -0.0000000
 C   -5.1707480    0.0000000    0.0000000  0.00    0.0017052   -0.0000000   -0.0000000
 C   -3.5569749    4.7419929    0.0000000  0.00    0.0000547   -0.0034513   -0.0000000
 C   -2.8307593    5.9475053    0.0000000  0.00    0.0007386    0.0003690   -0.0000000
 C   -3.5124148    7.1995393    0.0000000  0.00   -0.0016024   -0.0003059   -0.0000000
 C   -3.6420201    2.3459219    0.0000000  0.00    0.0005045    0.0013508   -0.0000000
 C   -2.8599136    3.4980325    0.0000000  0.00    0.0038533    0.0026903   -0.0000000
 C   -3.7824652    0.0000000    0.0000000  0.00    0.0021899   -0.0000000   -0.0000000
 C   -2.9811932    1.1226827    0.0000000  0.00   -0.0030203    0.0029732   -0.0000000
 C   -1.4120742    5.8585652    0.0000000  0.00   -0.0016900   -0.0015809   -0.0000000
 C   -0.7107032    7.0820414    0.0000000  0.00    0.0042627   -0.0041869   -0.0000000
 C   -2.7595173    8.3746957    0.0000000  0.00    0.0018931    0.0002406   -0.0000000
 C   -1.4044087    8.3081437    0.0000000  0.00   -0.0006823    0.0039313   -0.0000000
 C   -1.4201095    3.3355641    0.0000000  0.00   -0.0020178    0.0012821   -0.0000000
 C   -0.7087034    4.5816477    0.0000000  0.00   -0.0022691   -0.0004582   -0.0000000
 C   -1.5827895    0.7979447    0.0000000  0.00   -0.0017173   -0.0001783   -0.0000000
 C   -0.7341638    1.9993954    0.0000000  0.00    0.0047147    0.0054327   -0.0000000
 H   -8.8699061    7.3378737    0.0000000  0.00   -0.0003622    0.0021328   -0.0000000
 H   -7.5670356    9.4711888    0.0000000  0.00    0.0010032   -0.0001381   -0.0000000
 H   -5.1399168    9.4310972    0.0000000  0.00   -0.0028697    0.0008494   -0.0000000
 H   -8.9220365    4.9460062    0.0000000  0.00    0.0004484   -0.0006461   -0.0000000
 H   -9.0150233    2.5284559    0.0000000  0.00    0.0022217   -0.0020787   -0.0000000
 H   -9.0628505    0.0000000    0.0000000  0.00    0.0017813   -0.0000000   -0.0000000
 H   -3.2339271    9.3530718    0.0000000  0.00    0.0003488    0.0022899   -0.0000000
 H   -0.8690998    9.2480926    0.0000000  0.00   -0.0025790    0.0013926   -0.0000000
 C    7.1041861    6.0918818    0.0000000  0.00    0.0037365    0.0011560   -0.0000000
 C    5.6737004    6.0520915    0.0000000  0.00   -0.0027524   -0.0051558   -0.0000000
 C    7.7747429    7.3349552    0.0000000  0.00    0.0006740   -0.0014448   -0.0000000
 C    4.9545417    7.2624841    0.0000000  0.00    0.0002816    0.0005171   -0.0000000
 C    7.0562306    8.5045542    0.0000000  0.00   -0.0003422    0.0005696   -0.0000000
 C    5.6655744    8.4725439    0.0000000  0.00    0.0040305   -0.0020879   -0.0000000
 C    7.1870884    3.6646593    0.0000000  0.00    0.0003666    0.0017941   -0.0000000
 C    5.7483447    3.6284982    0.0000000  0.00   -0.0002479   -0.0027325   -0.0000000
 C    7.8305635    4.8999657    0.0000000  0.00   -0.0032142   -0.0023626   -0.0000000
 C    4.9903307    4.8063729    0.0000000  0.00    0.0025031    0.0043894   -0.0000000
 C    7.2906530    1.2305367    0.0000000  0.00   -0.0046692   -0.0002175   -0.0000000
 C    5.8512097    1.2213605    0.0000000  0.00    0.0013445    0.0015707   -0.0000000
 C    7.9302204    2.4687259    0.0000000  0.00   -0.0028431   -0.0013512   -0.0000000
 C    5.0796903    2.3938662    0.0000000  0.00   -0.0040037   -0.0022459   -0.0000000
 C    3.5569749    4.7419929    0.0000000  0.00   -0.0000547   -0.0034513   -0.0000000
 C    2.8307593    5.9475053    0.0000000  0.00   -0.0007386    0.0003690   -0.0000000
 C    3.5124148    7.1995393    0.0000000  0.00    0.0016024   -0.0003059   -0.0000000
 C    3.6420201    2.3459219    0.0000000  0.00   -0.0005045    0.0013508   -0.0000000
 C    2.8599136    3.4980325    0.0000000  0.00   -0.0038533    0.0026903   -0.0000000
 C    2.9811932    1.1226827    0.0000000  0.00    0.0030203    0.0029732   -0.0000000
 C    1.4120742    5.8585652    0.0000000  0.00    0.0016900   -0.0015809   -0.0000000
 C    0.7107032    7.0820414    0.0000000  0.00   -0.0042627   -0.0041869   -0.0000000
 C    2.7595173    8.3746957    0.0000000  0.00   -0.0018931    0.0002406   -0.0000000
 C    1.4044087    8.3081437    0.0000000  0.00    0.0006823    0.0039313   -0.0000000
 C    1.4201095    3.3355641    0.0000000  0.00    0.0020178    0.0012821   -0.0000000
 C    0.7087034    4.5816477    0.0000000  0.00    0.0022691   -0.0004582   -0.0000000
 C    1.5827895    0.7979447    0.0000000  0.00    0.0017173   -0.0001783   -0.0000000
 C    0.7341638    1.9993954    0.0000000  0.00   -0.0047147    0.0054327   -0.0000000
 H    8.8699061    7.3378737    0.0000000  0.00    0.0003622    0.0021328   -0.0000000
 H    7.5670356    9.4711888    0.0000000  0.00   -0.0010032   -0.0001381   -0.0000000
 H    5.1399168    9.4310972    0.0000000  0.00    0.0028697    0.0008494   -0.0000000
 H    8.9220365    4.9460062    0.0000000  0.00   -0.0004484   -0.0006461   -0.0000000
 H    9.0150233    2.5284559    0.0000000  0.00   -0.0022217   -0.0020787   -0.0000000
 H    3.2339271    9.3530718    0.0000000  0.00   -0.0003488    0.0022899   -0.0000000
 H    0.8690998    9.2480926    0.0000000  0.00    0.0025790    0.0013926   -0.0000000
 C   -7.1041861   -6.0918818    0.0000000  0.00   -0.0037365   -0.0011560   -0.0000000
 C   -5.6737004   -6.0520915    0.0000000  0.00    0.0027524    0.0051558   -0.0000000
 C   -7.7747429   -7.3349552    0.0000000  0.00   -0.0006740    0.0014448   -0.0000000
 C   -4.9545417   -7.2624841    0.0000000  0.00   -0.0002816   -0.0005171   -0.0000000
 C   -7.0562306   -8.5045542    0.0000000  0.00    0.0003422   -0.0005696   -0.0000000
 C   -5.6655744   -8.4725439    0.0000000  0.00   -0.0040305    0.0020879   -0.0000000
 C   -7.1870884   -3.6646593    0.0000000  0.00   -0.0003666   -0.0017941   -0.0000000
 C   -5.7483447   -3.6284982    0.0000000  0.00    0.0002479    0.0027325   -0.0000000
 C   -7.8305635   -4.8999657    0.0000000  0.00    0.0032142    0.0023626   -0.0000000
 C   -4.9903307   -4.8063729    0.0000000  0.00   -0.0025031   -0.0043894   -0.0000000
 C   -7.2906530   -1.2305367    0.0000000  0.00    0.0046692    0.0002175   -0.0000000
 C   -5.8512097   -1.2213605    0.0000000  0.00   -0.0013445   -0.0015707   -0.0000000
 C   -7.9302204   -2.4687259    0.0000000  0.00    0.0028431    0.0013512   -0.0000000
 C   -5.0796903   -2.3938662    0.0000000  0.00    0.0040037    0.0022459   -0.0000000
 C   -3.5569749   -4.7419929    0.0000000  0.00    0.0000547    0.0034513   -0.0000000
 C   -2.8307593   -5.9475053    0.0000000  0.00    0.0007386   -0.0003690   -0.0000000
 C   -3.5124148   -7.1995393    0.0000000  0.00   -0.0016024    0.0003059   -0.0000000
 C   -3.6420201   -2.3459219    0.0000000  0.00    0.0005045   -0.0013508   -0.0000000
 C   -2.8599136   -3.4980325    0.0000000  0.00    0.0038533   -0.0026903   -0.0000000
 C   -2.9811932   -1.1226827    0.0000000  0.00   -0.0030203   -0.0029732   -0.0000000
 C   -1.4120742   -5.8585652    0.0000000  0.00   -0.0016900    0.0015809   -0.0000000
 C   -0.7107032   -7.0820414    0.0000000  0.00    0.0042627    0.0041869   -0.0000000
 C   -2.7595173   -8.3746957    0.0000000  0.00    0.0018931   -0.0002406   -0.0000000
 C   -1.4044087   -8.3081437    0.0000000  0.00   -0.0006823   -0.0039313   -0.0000000
 C   -1.4201095   -3.3355641    0.0000000  0.00   -0.0020178   -0.0012821   -0.0000000
 C   -0.7087034   -4.5816477    0.0000000  0.00   -0.0022691    0.0004582   -0.0000000
 C   -1.5827895   -0.7979447    0.0000000  0.00   -0.0017173    0.0001783   -0.0000000
 C   -0.7341638   -1.9993954    0.0000000  0.00    0.0047147   -0.0054327   -0.0000000
 H   -8.8699061   -7.3378737    0.0000000  0.00   -0.0003622   -0.0021328   -0.0000000
 H   -7.5670356   -9.4711888    0.0000000  0.00    0.0010032    0.0001381   -0.0000000
 H   -5.1399168   -9.4310972    0.0000000  0.00   -0.0028697   -0.0008494   -0.0000000
 H   -8.9220365   -4.9460062    0.0000000  0.00    0.0004484    0.0006461   -0.0000000
 H   -9.0150233   -2.5284559    0.0000000  0.00    0.0022217    0.0020787   -0.0000000
 H   -3.2339271   -9.3530718    0.0000000  0.00    0.0003488   -0.0022899   -0.0000000
 H   -0.8690998   -9.2480926    0.0000000  0.00   -0.0025790   -0.0013926   -0.0000000
