148
 Energy =   -4513.2339779350
 C    7.1029672   -6.1031056    0.0000000  0.00    0.0020369    0.0005870   -0.0000000
 C    5.6723824   -6.0642681    0.0000000  0.00   -0.0007291    0.0001240   -0.0000000
 C    7.7676735   -7.3449532    0.0000000  0.00    0.0018556   -0.0006855   -0.0000000
 C    4.9524226   -7.2737174    0.0000000  0.00   -0.0008061   -0.0004018   -0.0000000
 C    7.0475258   -8.5194410    0.0000000  0.00   -0.0000857    0.0005081   -0.0000000
 C    5.6606425   -8.4893720    0.0000000  0.00    0.0009287   -0.0004085   -0.0000000
 C    7.1858177   -3.6681782    0.0000000  0.00    0.0008126    0.0004101   -0.0000000
 C    5.7434519   -3.6321685    0.0000000  0.00    0.0008551   -0.0002070   -0.0000000
 C    7.8273817   -4.9035262    0.0000000  0.00   -0.0011695    0.0009119   -0.0000000
 C    4.9857000   -4.8154338    0.0000000  0.00    0.0017633   -0.0003129   -0.0000000
 C    7.2782276   -1.2297434    0.0000000  0.00   -0.0007767    0.0001352   -0.0000000
 C    5.8428845   -1.2210895    0.0000000  0.00    0.0011037   -0.0004422   -0.0000000
 C    7.9220784   -2.4692309    0.0000000  0.00   -0.0006325    0.0018123   -0.0000000
 C    5.0733450   -2.4003278    0.0000000  0.00   -0.0001129    0.0008335   -0.0000000
 C    7.9621670    0.0000000    0.0000000  0.00    0.0017531   -0.0000000   -0.0000000
 C    5.1649162    0.0000000    0.0000000  0.00    0.0005234   -0.0000000   -0.0000000
 C    3.5579051   -4.7516077    0.0000000  0.00    0.0003854   -0.0007449   -0.0000000
 C    2.8309503   -5.9583524    0.0000000  0.00    0.0000107   -0.0003025   -0.0000000
 C    3.5124796   -7.2075356    0.0000000  0.00    0.0004288    0.0001303   -0.0000000
 C    3.6376775   -2.3528051    0.0000000  0.00   -0.0007509    0.0007803   -0.0000000
 C    2.8578213   -3.5044262    0.0000000  0.00    0.0009088   -0.0009109   -0.0000000
 C    3.7740906    0.0000000    0.0000000  0.00   -0.0012364   -0.0000000   -0.0000000
 C    2.9744955   -1.1263667    0.0000000  0.00    0.0013173   -0.0012561   -0.0000000
 C    1.4114659   -5.8706854    0.0000000  0.00   -0.0020789   -0.0001838   -0.0000000
 C    0.7095954   -7.0920709    0.0000000  0.00    0.0035353    0.0010964   -0.0000000
 C    2.7583113   -8.3867763    0.0000000  0.00   -0.0026080    0.0000543   -0.0000000
 C    1.4052698   -8.3218364    0.0000000  0.00   -0.0011117   -0.0004194   -0.0000000
 C    1.4204280   -3.3432675    0.0000000  0.00   -0.0018119   -0.0013094   -0.0000000
 C    0.7061703   -4.5936379    0.0000000  0.00    0.0031861   -0.0003230   -0.0000000
 C    1.5825400   -0.8078383    0.0000000  0.00   -0.0006521   -0.0001844   -0.0000000
 C    0.7336340   -2.0106684    0.0000000  0.00    0.0000932   -0.0003749   -0.0000000
 H    8.8574884   -7.3582675    0.0000000  0.00    0.0014231   -0.0003372   -0.0000000
 H    7.5612142   -9.4810043    0.0000000  0.00   -0.0006464   -0.0012897   -0.0000000
 H    5.1355349   -9.4423894    0.0000000  0.00    0.0014908   -0.0006485   -0.0000000
 H    8.9137877   -4.9451065    0.0000000  0.00   -0.0004721    0.0003676   -0.0000000
 H    9.0059527   -2.5190891    0.0000000  0.00   -0.0009871    0.0013116   -0.0000000
 H    9.0467064    0.0000000    0.0000000  0.00   -0.0005951   -0.0000000   -0.0000000
 H    3.2373215   -9.3581099    0.0000000  0.00    0.0007444    0.0006241   -0.0000000
 H    0.8670400   -9.2540193    0.0000000  0.00    0.0005414   -0.0010464   -0.0000000
 C   -7.1029672    6.1031056    0.0000000  0.00   -0.0020369   -0.0005870   -0.0000000
 C   -5.6723824    6.0642681    0.0000000  0.00    0.0007291   -0.0001240   -0.0000000
 C   -7.7676735    7.3449532    0.0000000  0.00   -0.0018556    0.0006855   -0.0000000
 C   -4.9524226    7.2737174    0.0000000  0.00    0.0008061    0.0004018   -0.0000000
 C   -7.0475258    8.5194410    0.0000000  0.00    0.0000857   -0.0005081   -0.0000000
 C   -5.6606425    8.4893720    0.0000000  0.00   -0.0009287    0.0004085   -0.0000000
 C   -7.1858177    3.6681782    0.0000000  0.00   -0.0008126   -0.0004101   -0.0000000
 C   -5.7434519    3.6321685    0.0000000  0.00   -0.0008551    0.0002070   -0.0000000
 C   -7.8273817    4.9035262    0.0000000  0.00    0.0011695   -0.0009119   -0.0000000
 C   -4.9857000    4.8154338    0.0000000  0.00   -0.0017633    0.0003129   -0.0000000
 C   -7.2782276    1.2297434    0.0000000  0.00    0.0007767   -0.0001352   -0.0000000
 C   -5.8428845    1.2210895    0.0000000  0.00   -0.0011037    0.0004422   -0.0000000
 C   -7.9220784    2.4692309    0.0000000  0.00    0.0006325   -0.0018123   -0.0000000
 C   -5.0733450    2.4003278    0.0000000  0.00    0.0001129   -0.0008335   -0.0000000
 C   -7.9621670    0.0000000    0.0000000  0.00   -0.0017531   -0.0000000   -0.0000000
 C   -5.1649162    0.0000000    0.0000000  0.00   -0.0005234   -0.0000000   -0.0000000
 C   -3.5579051    4.7516077    0.0000000  0.00   -0.0003854    0.0007449   -0.0000000
 C   -2.8309503    5.9583524    0.0000000  0.00   -0.0000107    0.0003025   -0.0000000
 C   -3.5124796    7.2075356    0.0000000  0.00   -0.0004288   -0.0001303   -0.0000000
 C   -3.6376775    2.3528051    0.0000000  0.00    0.0007509   -0.0007803   -0.0000000
 C   -2.8578213    3.5044262    0.0000000  0.00   -0.0009088    0.0009109   -0.0000000
 C   -3.7740906    0.0000000    0.0000000  0.00    0.0012364   -0.0000000   -0.0000000
 C   -2.9744955    1.1263667    0.0000000  0.00   -0.0013173    0.0012561   -0.0000000
 C   -1.4114659    5.8706854    0.0000000  0.00    0.0020789    0.0001838   -0.0000000
 C   -0.7095954    7.0920709    0.0000000  0.00   -0.0035353   -0.0010964   -0.0000000
 C   -2.7583113    8.3867763    0.0000000  0.00    0.0026080   -0.0000543   -0.0000000
 C   -1.4052698    8.3218364    0.0000000  0.00    0.0011117    0.0004194   -0.0000000
 C   -1.4204280    3.3432675    0.0000000  0.00    0.0018119    0.0013094   -0.0000000
 C   -0.7061703    4.5936379    0.0000000  0.00   -0.0031861    0.0003230   -0.0000000
 C   -1.5825400    0.8078383    0.0000000  0.00    0.0006521    0.0001844   -0.0000000
 C   -0.7336340    2.0106684    0.0000000  0.00   -0.0000932    0.0003749   -0.0000000
 H   -8.8574884    7.3582675    0.0000000  0.00   -0.0014231    0.0003372   -0.0000000
 H   -7.5612142    9.4810043    0.0000000  0.00    0.0006464    0.0012897   -0.0000000
 H   -5.1355349    9.4423894    0.0000000  0.00   -0.0014908    0.0006485   -0.0000000
 H   -8.9137877    4.9451065    0.0000000  0.00    0.0004721   -0.0003676   -0.0000000
 H   -9.0059527    2.5190891    0.0000000  0.00    0.0009871   -0.0013116   -0.0000000
 H   -9.0467064    0.0000000    0.0000000  0.00    0.0005951   -0.0000000   -0.0000000
 H   -3.2373215    9.3581099    0.0000000  0.00   -0.0007444   -0.0006241   -0.0000000
 H   -0.8670400    9.2540193    0.0000000  0.00   -0.0005414    0.0010464   -0.0000000
 C    7.1029672    6.1031056    0.0000000  0.00    0.0020369   -0.0005870   -0.0000000
 C    5.6723824    6.0642681    0.0000000  0.00   -0.0007291   -0.0001240   -0.0000000
 C    7.7676735    7.3449532    0.0000000  0.00    0.0018556    0.0006855   -0.0000000
 C    4.9524226    7.2737174    0.0000000  0.00   -0.0008061    0.0004018   -0.0000000
 C    7.0475258    8.5194410    0.0000000  0.00   -0.0000857   -0.0005081   -0.0000000
 C    5.6606425    8.4893720    0.0000000  0.00    0.0009287    0.0004085   -0.0000000
 C    7.1858177    3.6681782    0.0000000  0.00    0.0008126   -0.0004101   -0.0000000
 C    5.7434519    3.6321685    0.0000000  0.00    0.0008551    0.0002070   -0.0000000
 C    7.8273817    4.9035262    0.0000000  0.00   -0.0011695   -0.0009119   -0.0000000
 C    4.9857000    4.8154338    0.0000000  0.00    0.0017633    0.0003129   -0.0000000
 C    7.2782276    1.2297434    0.0000000  0.00   -0.0007767   -0.0001352   -0.0000000
 C    5.8428845    1.2210895    0.0000000  0.00    0.0011037    0.0004422   -0.0000000
 C    7.9220784    2.4692309    0.0000000  0.00   -0.0006325   -0.0018123   -0.0000000
 C    5.0733450    2.4003278    0.0000000  0.00   -0.0001129   -0.0008335   -0.0000000
 C    3.5579051    4.7516077    0.0000000  0.00    0.0003854    0.0007449   -0.0000000
 C    2.8309503    5.9583524    0.0000000  0.00    0.0000107    0.0003025   -0.0000000
 C    3.5124796    7.2075356    0.0000000  0.00    0.0004288   -0.0001303   -0.0000000
 C    3.6376775    2.3528051    0.0000000  0.00   -0.0007509   -0.0007803   -0.0000000
 C    2.8578213    3.5044262    0.0000000  0.00    0.0009088    0.0009109   -0.0000000
 C    2.9744955    1.1263667    0.0000000  0.00    0.0013173    0.0012561   -0.0000000
 C    1.4114659    5.8706854    0.0000000  0.00   -0.0020789    0.0001838   -0.0000000
 C    0.7095954    7.0920709    0.0000000  0.00    0.0035353   -0.0010964   -0.0000000
 C    2.7583113    8.3867763    0.0000000  0.00   -0.0026080   -0.0000543   -0.0000000
 C    1.4052698    8.3218364    0.0000000  0.00   -0.0011117    0.0004194   -0.0000000
 C    1.4204280    3.3432675    0.0000000  0.00   -0.0018119    0.0013094   -0.0000000
 C    0.7061703    4.5936379    0.0000000  0.00    0.0031861    0.0003230   -0.0000000
 C    1.5825400    0.8078383    0.0000000  0.00   -0.0006521    0.0001844   -0.0000000
 C    0.7336340    2.0106684    0.0000000  0.00    0.0000932    0.0003749   -0.0000000
 H    8.8574884    7.3582675    0.0000000  0.00    0.0014231    0.0003372   -0.0000000
 H    7.5612142    9.4810043    0.0000000  0.00   -0.0006464    0.0012897   -0.0000000
 H    5.1355349    9.4423894    0.0000000  0.00    0.0014908    0.0006485   -0.0000000
 H    8.9137877    4.9451065    0.0000000  0.00   -0.0004721   -0.0003676   -0.0000000
 H    9.0059527    2.5190891    0.0000000  0.00   -0.0009871   -0.0013116   -0.0000000
 H    3.2373215    9.3581099    0.0000000  0.00    0.0007444   -0.0006241   -0.0000000
 H    0.8670400    9.2540193    0.0000000  0.00    0.0005414    0.0010464   -0.0000000
 C   -7.1029672   -6.1031056    0.0000000  0.00   -0.0020369    0.0005870   -0.0000000
 C   -5.6723824   -6.0642681    0.0000000  0.00    0.0007291    0.0001240   -0.0000000
 C   -7.7676735   -7.3449532    0.0000000  0.00   -0.0018556   -0.0006855   -0.0000000
 C   -4.9524226   -7.2737174    0.0000000  0.00    0.0008061   -0.0004018   -0.0000000
 C   -7.0475258   -8.5194410    0.0000000  0.00    0.0000857    0.0005081   -0.0000000
 C   -5.6606425   -8.4893720    0.0000000  0.00   -0.0009287   -0.0004085   -0.0000000
 C   -7.1858177   -3.6681782    0.0000000  0.00   -0.0008126    0.0004101   -0.0000000
 C   -5.7434519   -3.6321685    0.0000000  0.00   -0.0008551   -0.0002070   -0.0000000
 C   -7.8273817   -4.9035262    0.0000000  0.00    0.0011695    0.0009119   -0.0000000
 C   -4.9857000   -4.8154338    0.0000000  0.00   -0.0017633   -0.0003129   -0.0000000
 C   -7.2782276   -1.2297434    0.0000000  0.00    0.0007767    0.0001352   -0.0000000
 C   -5.8428845   -1.2210895    0.0000000  0.00   -0.0011037   -0.0004422   -0.0000000
 C   -7.9220784   -2.4692309    0.0000000  0.00    0.0006325    0.0018123   -0.0000000
 C   -5.0733450   -2.4003278    0.0000000  0.00    0.0001129    0.0008335   -0.0000000
 C   -3.5579051   -4.7516077    0.0000000  0.00   -0.0003854   -0.0007449   -0.0000000
 C   -2.8309503   -5.9583524    0.0000000  0.00   -0.0000107   -0.0003025   -0.0000000
 C   -3.5124796   -7.2075356    0.0000000  0.00   -0.0004288    0.0001303   -0.0000000
 C   -3.6376775   -2.3528051    0.0000000  0.00    0.0007509    0.0007803   -0.0000000
 C   -2.8578213   -3.5044262    0.0000000  0.00   -0.0009088   -0.0009109   -0.0000000
 C   -2.9744955   -1.1263667    0.0000000  0.00   -0.0013173   -0.0012561   -0.0000000
 C   -1.4114659   -5.8706854    0.0000000  0.00    0.0020789   -0.0001838   -0.0000000
 C   -0.7095954   -7.0920709    0.0000000  0.00   -0.0035353    0.0010964   -0.0000000
 C   -2.7583113   -8.3867763    0.0000000  0.00    0.0026080    0.0000543   -0.0000000
 C   -1.4052698   -8.3218364    0.0000000  0.00    0.0011117   -0.0004194   -0.0000000
 C   -1.4204280   -3.3432675    0.0000000  0.00    0.0018119   -0.0013094   -0.0000000
 C   -0.7061703   -4.5936379    0.0000000  0.00   -0.0031861   -0.0003230   -0.0000000
 C   -1.5825400   -0.8078383    0.0000000  0.00    0.0006521   -0.0001844   -0.0000000
 C   -0.7336340   -2.0106684    0.0000000  0.00   -0.0000932   -0.0003749   -0.0000000
 H   -8.8574884   -7.3582675    0.0000000  0.00   -0.0014231   -0.0003372   -0.0000000
 H   -7.5612142   -9.4810043    0.0000000  0.00    0.0006464   -0.0012897   -0.0000000
 H   -5.1355349   -9.4423894    0.0000000  0.00   -0.0014908   -0.0006485   -0.0000000
 H   -8.9137877   -4.9451065    0.0000000  0.00    0.0004721    0.0003676   -0.0000000
 H   -9.0059527   -2.5190891    0.0000000  0.00    0.0009871    0.0013116   -0.0000000
 H   -3.2373215   -9.3581099    0.0000000  0.00   -0.0007444    0.0006241   -0.0000000
 H   -0.8670400   -9.2540193    0.0000000  0.00   -0.0005414   -0.0010464   -0.0000000
