148
 Energy =   -4513.4251139340
 C    7.1182764   -6.1009357    0.0000000  0.00   -0.0001213    0.0003835   -0.0000000
 C    5.6851103   -6.0615711    0.0000000  0.00    0.0000487    0.0005334   -0.0000000
 C    7.7806034   -7.3470819    0.0000000  0.00    0.0002264    0.0004948   -0.0000000
 C    4.9612006   -7.2720097    0.0000000  0.00   -0.0000483   -0.0007653   -0.0000000
 C    7.0572972   -8.5183122    0.0000000  0.00    0.0003651    0.0014102   -0.0000000
 C    5.6649945   -8.4843788    0.0000000  0.00    0.0012160   -0.0003484   -0.0000000
 C    7.1956719   -3.6690034    0.0000000  0.00    0.0001260    0.0000969   -0.0000000
 C    5.7541134   -3.6322366    0.0000000  0.00   -0.0014103    0.0000139   -0.0000000
 C    7.8394991   -4.8998501    0.0000000  0.00   -0.0004169    0.0011100   -0.0000000
 C    4.9979277   -4.8130404    0.0000000  0.00   -0.0011814    0.0006964   -0.0000000
 C    7.2854563   -1.2314740    0.0000000  0.00   -0.0004393    0.0001988   -0.0000000
 C    5.8467854   -1.2208817    0.0000000  0.00    0.0005106    0.0002726   -0.0000000
 C    7.9294092   -2.4635799    0.0000000  0.00   -0.0001421    0.0001701   -0.0000000
 C    5.0809463   -2.3980812    0.0000000  0.00    0.0001428   -0.0000071   -0.0000000
 C    7.9709184    0.0000000    0.0000000  0.00    0.0001604   -0.0000000   -0.0000000
 C    5.1687808    0.0000000    0.0000000  0.00   -0.0001236   -0.0000000   -0.0000000
 C    3.5634578   -4.7455457    0.0000000  0.00    0.0010444   -0.0005381   -0.0000000
 C    2.8364665   -5.9520620    0.0000000  0.00   -0.0012253    0.0007800   -0.0000000
 C    3.5169431   -7.2018006    0.0000000  0.00    0.0005973   -0.0001942   -0.0000000
 C    3.6428791   -2.3503510    0.0000000  0.00    0.0010383    0.0000321   -0.0000000
 C    2.8643690   -3.5034914    0.0000000  0.00   -0.0003644    0.0010147   -0.0000000
 C    3.7790715    0.0000000    0.0000000  0.00    0.0016007   -0.0000000   -0.0000000
 C    2.9806202   -1.1238363    0.0000000  0.00    0.0016312   -0.0004168   -0.0000000
 C    1.4152503   -5.8625080    0.0000000  0.00    0.0005346   -0.0003507   -0.0000000
 C    0.7121953   -7.0831759    0.0000000  0.00   -0.0007689   -0.0010697   -0.0000000
 C    2.7605642   -8.3740998    0.0000000  0.00   -0.0004425    0.0003156   -0.0000000
 C    1.4041503   -8.3093768    0.0000000  0.00   -0.0003307   -0.0013324   -0.0000000
 C    1.4215594   -3.3407404    0.0000000  0.00    0.0000226   -0.0001728   -0.0000000
 C    0.7100103   -4.5831186    0.0000000  0.00    0.0009614   -0.0000091   -0.0000000
 C    1.5822508   -0.7998205    0.0000000  0.00    0.0013972    0.0003140   -0.0000000
 C    0.7346368   -2.0034345    0.0000000  0.00    0.0011283    0.0000922   -0.0000000
 H    8.8644170   -7.3650140    0.0000000  0.00    0.0014556    0.0012047   -0.0000000
 H    7.5676243   -9.4745130    0.0000000  0.00    0.0000366    0.0002393   -0.0000000
 H    5.1350955   -9.4255018    0.0000000  0.00    0.0007001   -0.0010150   -0.0000000
 H    8.9237634   -4.9338638    0.0000000  0.00    0.0003446   -0.0006412   -0.0000000
 H    9.0132412   -2.5080177    0.0000000  0.00   -0.0005273   -0.0011629   -0.0000000
 H    9.0555637    0.0000000    0.0000000  0.00   -0.0005028   -0.0000000   -0.0000000
 H    3.2363513   -9.3430954    0.0000000  0.00   -0.0001463    0.0002730   -0.0000000
 H    0.8652940   -9.2407676    0.0000000  0.00   -0.0017555   -0.0021283   -0.0000000
 C   -7.1182764    6.1009357    0.0000000  0.00    0.0001213   -0.0003835   -0.0000000
 C   -5.6851103    6.0615711    0.0000000  0.00   -0.0000487   -0.0005334   -0.0000000
 C   -7.7806034    7.3470819    0.0000000  0.00   -0.0002264   -0.0004948   -0.0000000
 C   -4.9612006    7.2720097    0.0000000  0.00    0.0000483    0.0007653   -0.0000000
 C   -7.0572972    8.5183122    0.0000000  0.00   -0.0003651   -0.0014102   -0.0000000
 C   -5.6649945    8.4843788    0.0000000  0.00   -0.0012160    0.0003484   -0.0000000
 C   -7.1956719    3.6690034    0.0000000  0.00   -0.0001260   -0.0000969   -0.0000000
 C   -5.7541134    3.6322366    0.0000000  0.00    0.0014103   -0.0000139   -0.0000000
 C   -7.8394991    4.8998501    0.0000000  0.00    0.0004169   -0.0011100   -0.0000000
 C   -4.9979277    4.8130404    0.0000000  0.00    0.0011814   -0.0006964   -0.0000000
 C   -7.2854563    1.2314740    0.0000000  0.00    0.0004393   -0.0001988   -0.0000000
 C   -5.8467854    1.2208817    0.0000000  0.00   -0.0005106   -0.0002726   -0.0000000
 C   -7.9294092    2.4635799    0.0000000  0.00    0.0001421   -0.0001701   -0.0000000
 C   -5.0809463    2.3980812    0.0000000  0.00   -0.0001428    0.0000071   -0.0000000
 C   -7.9709184    0.0000000    0.0000000  0.00   -0.0001604   -0.0000000   -0.0000000
 C   -5.1687808    0.0000000    0.0000000  0.00    0.0001236   -0.0000000   -0.0000000
 C   -3.5634578    4.7455457    0.0000000  0.00   -0.0010444    0.0005381   -0.0000000
 C   -2.8364665    5.9520620    0.0000000  0.00    0.0012253   -0.0007800   -0.0000000
 C   -3.5169431    7.2018006    0.0000000  0.00   -0.0005973    0.0001942   -0.0000000
 C   -3.6428791    2.3503510    0.0000000  0.00   -0.0010383   -0.0000321   -0.0000000
 C   -2.8643690    3.5034914    0.0000000  0.00    0.0003644   -0.0010147   -0.0000000
 C   -3.7790715    0.0000000    0.0000000  0.00   -0.0016007   -0.0000000   -0.0000000
 C   -2.9806202    1.1238363    0.0000000  0.00   -0.0016312    0.0004168   -0.0000000
 C   -1.4152503    5.8625080    0.0000000  0.00   -0.0005346    0.0003507   -0.0000000
 C   -0.7121953    7.0831759    0.0000000  0.00    0.0007689    0.0010697   -0.0000000
 C   -2.7605642    8.3740998    0.0000000  0.00    0.0004425   -0.0003156   -0.0000000
 C   -1.4041503    8.3093768    0.0000000  0.00    0.0003307    0.0013324   -0.0000000
 C   -1.4215594    3.3407404    0.0000000  0.00   -0.0000226    0.0001728   -0.0000000
 C   -0.7100103    4.5831186    0.0000000  0.00   -0.0009614    0.0000091   -0.0000000
 C   -1.5822508    0.7998205    0.0000000  0.00   -0.0013972   -0.0003140   -0.0000000
 C   -0.7346368    2.0034345    0.0000000  0.00   -0.0011283   -0.0000922   -0.0000000
 H   -8.8644170    7.3650140    0.0000000  0.00   -0.0014556   -0.0012047   -0.0000000
 H   -7.5676243    9.4745130    0.0000000  0.00   -0.0000366   -0.0002393   -0.0000000
 H   -5.1350955    9.4255018    0.0000000  0.00   -0.0007001    0.0010150   -0.0000000
 H   -8.9237634    4.9338638    0.0000000  0.00   -0.0003446    0.0006412   -0.0000000
 H   -9.0132412    2.5080177    0.0000000  0.00    0.0005273    0.0011629   -0.0000000
 H   -9.0555637    0.0000000    0.0000000  0.00    0.0005028   -0.0000000   -0.0000000
 H   -3.2363513    9.3430954    0.0000000  0.00    0.0001463   -0.0002730   -0.0000000
 H   -0.8652940    9.2407676    0.0000000  0.00    0.0017555    0.0021283   -0.0000000
 C    7.1182764    6.1009357    0.0000000  0.00   -0.0001213   -0.0003835   -0.0000000
 C    5.6851103    6.0615711    0.0000000  0.00    0.0000487   -0.0005334   -0.0000000
 C    7.7806034    7.3470819    0.0000000  0.00    0.0002264   -0.0004948   -0.0000000
 C    4.9612006    7.2720097    0.0000000  0.00   -0.0000483    0.0007653   -0.0000000
 C    7.0572972    8.5183122    0.0000000  0.00    0.0003651   -0.0014102   -0.0000000
 C    5.6649945    8.4843788    0.0000000  0.00    0.0012160    0.0003484   -0.0000000
 C    7.1956719    3.6690034    0.0000000  0.00    0.0001260   -0.0000969   -0.0000000
 C    5.7541134    3.6322366    0.0000000  0.00   -0.0014103   -0.0000139   -0.0000000
 C    7.8394991    4.8998501    0.0000000  0.00   -0.0004169   -0.0011100   -0.0000000
 C    4.9979277    4.8130404    0.0000000  0.00   -0.0011814   -0.0006964   -0.0000000
 C    7.2854563    1.2314740    0.0000000  0.00   -0.0004393   -0.0001988   -0.0000000
 C    5.8467854    1.2208817    0.0000000  0.00    0.0005106   -0.0002726   -0.0000000
 C    7.9294092    2.4635799    0.0000000  0.00   -0.0001421   -0.0001701   -0.0000000
 C    5.0809463    2.3980812    0.0000000  0.00    0.0001428    0.0000071   -0.0000000
 C    3.5634578    4.7455457    0.0000000  0.00    0.0010444    0.0005381   -0.0000000
 C    2.8364665    5.9520620    0.0000000  0.00   -0.0012253   -0.0007800   -0.0000000
 C    3.5169431    7.2018006    0.0000000  0.00    0.0005973    0.0001942   -0.0000000
 C    3.6428791    2.3503510    0.0000000  0.00    0.0010383   -0.0000321   -0.0000000
 C    2.8643690    3.5034914    0.0000000  0.00   -0.0003644   -0.0010147   -0.0000000
 C    2.9806202    1.1238363    0.0000000  0.00    0.0016312    0.0004168   -0.0000000
 C    1.4152503    5.8625080    0.0000000  0.00    0.0005346    0.0003507   -0.0000000
 C    0.7121953    7.0831759    0.0000000  0.00   -0.0007689    0.0010697   -0.0000000
 C    2.7605642    8.3740998    0.0000000  0.00   -0.0004425   -0.0003156   -0.0000000
 C    1.4041503    8.3093768    0.0000000  0.00   -0.0003307    0.0013324   -0.0000000
 C    1.4215594    3.3407404    0.0000000  0.00    0.0000226    0.0001728   -0.0000000
 C    0.7100103    4.5831186    0.0000000  0.00    0.0009614    0.0000091   -0.0000000
 C    1.5822508    0.7998205    0.0000000  0.00    0.0013972   -0.0003140   -0.0000000
 C    0.7346368    2.0034345    0.0000000  0.00    0.0011283   -0.0000922   -0.0000000
 H    8.8644170    7.3650140    0.0000000  0.00    0.0014556   -0.0012047   -0.0000000
 H    7.5676243    9.4745130    0.0000000  0.00    0.0000366   -0.0002393   -0.0000000
 H    5.1350955    9.4255018    0.0000000  0.00    0.0007001    0.0010150   -0.0000000
 H    8.9237634    4.9338638    0.0000000  0.00    0.0003446    0.0006412   -0.0000000
 H    9.0132412    2.5080177    0.0000000  0.00   -0.0005273    0.0011629   -0.0000000
 H    3.2363513    9.3430954    0.0000000  0.00   -0.0001463   -0.0002730   -0.0000000
 H    0.8652940    9.2407676    0.0000000  0.00   -0.0017555    0.0021283   -0.0000000
 C   -7.1182764   -6.1009357    0.0000000  0.00    0.0001213    0.0003835   -0.0000000
 C   -5.6851103   -6.0615711    0.0000000  0.00   -0.0000487    0.0005334   -0.0000000
 C   -7.7806034   -7.3470819    0.0000000  0.00   -0.0002264    0.0004948   -0.0000000
 C   -4.9612006   -7.2720097    0.0000000  0.00    0.0000483   -0.0007653   -0.0000000
 C   -7.0572972   -8.5183122    0.0000000  0.00   -0.0003651    0.0014102   -0.0000000
 C   -5.6649945   -8.4843788    0.0000000  0.00   -0.0012160   -0.0003484   -0.0000000
 C   -7.1956719   -3.6690034    0.0000000  0.00   -0.0001260    0.0000969   -0.0000000
 C   -5.7541134   -3.6322366    0.0000000  0.00    0.0014103    0.0000139   -0.0000000
 C   -7.8394991   -4.8998501    0.0000000  0.00    0.0004169    0.0011100   -0.0000000
 C   -4.9979277   -4.8130404    0.0000000  0.00    0.0011814    0.0006964   -0.0000000
 C   -7.2854563   -1.2314740    0.0000000  0.00    0.0004393    0.0001988   -0.0000000
 C   -5.8467854   -1.2208817    0.0000000  0.00   -0.0005106    0.0002726   -0.0000000
 C   -7.9294092   -2.4635799    0.0000000  0.00    0.0001421    0.0001701   -0.0000000
 C   -5.0809463   -2.3980812    0.0000000  0.00   -0.0001428   -0.0000071   -0.0000000
 C   -3.5634578   -4.7455457    0.0000000  0.00   -0.0010444   -0.0005381   -0.0000000
 C   -2.8364665   -5.9520620    0.0000000  0.00    0.0012253    0.0007800   -0.0000000
 C   -3.5169431   -7.2018006    0.0000000  0.00   -0.0005973   -0.0001942   -0.0000000
 C   -3.6428791   -2.3503510    0.0000000  0.00   -0.0010383    0.0000321   -0.0000000
 C   -2.8643690   -3.5034914    0.0000000  0.00    0.0003644    0.0010147   -0.0000000
 C   -2.9806202   -1.1238363    0.0000000  0.00   -0.0016312   -0.0004168   -0.0000000
 C   -1.4152503   -5.8625080    0.0000000  0.00   -0.0005346   -0.0003507   -0.0000000
 C   -0.7121953   -7.0831759    0.0000000  0.00    0.0007689   -0.0010697   -0.0000000
 C   -2.7605642   -8.3740998    0.0000000  0.00    0.0004425    0.0003156   -0.0000000
 C   -1.4041503   -8.3093768    0.0000000  0.00    0.0003307   -0.0013324   -0.0000000
 C   -1.4215594   -3.3407404    0.0000000  0.00   -0.0000226   -0.0001728   -0.0000000
 C   -0.7100103   -4.5831186    0.0000000  0.00   -0.0009614   -0.0000091   -0.0000000
 C   -1.5822508   -0.7998205    0.0000000  0.00   -0.0013972    0.0003140   -0.0000000
 C   -0.7346368   -2.0034345    0.0000000  0.00   -0.0011283    0.0000922   -0.0000000
 H   -8.8644170   -7.3650140    0.0000000  0.00   -0.0014556    0.0012047   -0.0000000
 H   -7.5676243   -9.4745130    0.0000000  0.00   -0.0000366    0.0002393   -0.0000000
 H   -5.1350955   -9.4255018    0.0000000  0.00   -0.0007001   -0.0010150   -0.0000000
 H   -8.9237634   -4.9338638    0.0000000  0.00   -0.0003446   -0.0006412   -0.0000000
 H   -9.0132412   -2.5080177    0.0000000  0.00    0.0005273   -0.0011629   -0.0000000
 H   -3.2363513   -9.3430954    0.0000000  0.00    0.0001463    0.0002730   -0.0000000
 H   -0.8652940   -9.2407676    0.0000000  0.00    0.0017555   -0.0021283   -0.0000000
