148
 Energy =   -4513.4169343320
 C    7.1211989   -6.1017176    0.0000000  0.00    0.0001291    0.0002178   -0.0000000
 C    5.6874184   -6.0619050    0.0000000  0.00   -0.0024443    0.0004908   -0.0000000
 C    7.7795111   -7.3509066    0.0000000  0.00   -0.0014496   -0.0017875   -0.0000000
 C    4.9625283   -7.2729900    0.0000000  0.00   -0.0026678   -0.0001712   -0.0000000
 C    7.0550906   -8.5216818    0.0000000  0.00   -0.0000357    0.0026086   -0.0000000
 C    5.6631532   -8.4877841    0.0000000  0.00    0.0001595   -0.0007102   -0.0000000
 C    7.2017388   -3.6687268    0.0000000  0.00    0.0007675   -0.0026770   -0.0000000
 C    5.7585562   -3.6325586    0.0000000  0.00   -0.0011784    0.0008806   -0.0000000
 C    7.8444230   -4.9035340    0.0000000  0.00   -0.0023581    0.0017264   -0.0000000
 C    5.0012250   -4.8140490    0.0000000  0.00   -0.0001239   -0.0015807   -0.0000000
 C    7.2850420   -1.2323530    0.0000000  0.00    0.0017165   -0.0001772   -0.0000000
 C    5.8480831   -1.2223907    0.0000000  0.00    0.0017582    0.0003288   -0.0000000
 C    7.9331247   -2.4635831    0.0000000  0.00    0.0001671    0.0000158   -0.0000000
 C    5.0840949   -2.3960051    0.0000000  0.00    0.0003681   -0.0046511   -0.0000000
 C    7.9683148    0.0000000    0.0000000  0.00   -0.0018598   -0.0000000   -0.0000000
 C    5.1704784    0.0000000    0.0000000  0.00   -0.0003751   -0.0000000   -0.0000000
 C    3.5649508   -4.7465581    0.0000000  0.00   -0.0013302   -0.0014354   -0.0000000
 C    2.8381189   -5.9474718    0.0000000  0.00   -0.0015983   -0.0014970   -0.0000000
 C    3.5187639   -7.2009327    0.0000000  0.00   -0.0016348    0.0014606   -0.0000000
 C    3.6457912   -2.3486232    0.0000000  0.00   -0.0019479    0.0031434   -0.0000000
 C    2.8652014   -3.5034911    0.0000000  0.00   -0.0008017   -0.0019850   -0.0000000
 C    3.7821535    0.0000000    0.0000000  0.00    0.0012784   -0.0000000   -0.0000000
 C    2.9829619   -1.1277185    0.0000000  0.00    0.0028126   -0.0033780   -0.0000000
 C    1.4162076   -5.8576161    0.0000000  0.00   -0.0018134   -0.0009638   -0.0000000
 C    0.7118328   -7.0818348    0.0000000  0.00    0.0009983   -0.0021122   -0.0000000
 C    2.7613150   -8.3705121    0.0000000  0.00    0.0035857   -0.0016014   -0.0000000
 C    1.4034490   -8.3058271    0.0000000  0.00   -0.0057853   -0.0023633   -0.0000000
 C    1.4259154   -3.3405276    0.0000000  0.00   -0.0008631   -0.0008925   -0.0000000
 C    0.7125288   -4.5848466    0.0000000  0.00   -0.0011120   -0.0020055   -0.0000000
 C    1.5819818   -0.8087551    0.0000000  0.00   -0.0019120   -0.0004014   -0.0000000
 C    0.7387566   -1.9967994    0.0000000  0.00   -0.0003346   -0.0015785   -0.0000000
 H    8.8633679   -7.3714760    0.0000000  0.00    0.0007101    0.0018442   -0.0000000
 H    7.5648410   -9.4781280    0.0000000  0.00    0.0023628   -0.0006401   -0.0000000
 H    5.1324372   -9.4284007    0.0000000  0.00    0.0012290   -0.0003503   -0.0000000
 H    8.9285079   -4.9398755    0.0000000  0.00   -0.0003036    0.0016791   -0.0000000
 H    9.0170396   -2.5043961    0.0000000  0.00   -0.0014734   -0.0046839   -0.0000000
 H    9.0532797    0.0000000    0.0000000  0.00   -0.0016905   -0.0000000   -0.0000000
 H    3.2362858   -9.3398572    0.0000000  0.00   -0.0009265    0.0010530   -0.0000000
 H    0.8649128   -9.2375999    0.0000000  0.00    0.0017099   -0.0001633   -0.0000000
 C   -7.1211989    6.1017176    0.0000000  0.00   -0.0001291   -0.0002178   -0.0000000
 C   -5.6874184    6.0619050    0.0000000  0.00    0.0024443   -0.0004908   -0.0000000
 C   -7.7795111    7.3509066    0.0000000  0.00    0.0014496    0.0017875   -0.0000000
 C   -4.9625283    7.2729900    0.0000000  0.00    0.0026678    0.0001712   -0.0000000
 C   -7.0550906    8.5216818    0.0000000  0.00    0.0000357   -0.0026086   -0.0000000
 C   -5.6631532    8.4877841    0.0000000  0.00   -0.0001595    0.0007102   -0.0000000
 C   -7.2017388    3.6687268    0.0000000  0.00   -0.0007675    0.0026770   -0.0000000
 C   -5.7585562    3.6325586    0.0000000  0.00    0.0011784   -0.0008806   -0.0000000
 C   -7.8444230    4.9035340    0.0000000  0.00    0.0023581   -0.0017264   -0.0000000
 C   -5.0012250    4.8140490    0.0000000  0.00    0.0001239    0.0015807   -0.0000000
 C   -7.2850420    1.2323530    0.0000000  0.00   -0.0017165    0.0001772   -0.0000000
 C   -5.8480831    1.2223907    0.0000000  0.00   -0.0017582   -0.0003288   -0.0000000
 C   -7.9331247    2.4635831    0.0000000  0.00   -0.0001671   -0.0000158   -0.0000000
 C   -5.0840949    2.3960051    0.0000000  0.00   -0.0003681    0.0046511   -0.0000000
 C   -7.9683148    0.0000000    0.0000000  0.00    0.0018598   -0.0000000   -0.0000000
 C   -5.1704784    0.0000000    0.0000000  0.00    0.0003751   -0.0000000   -0.0000000
 C   -3.5649508    4.7465581    0.0000000  0.00    0.0013302    0.0014354   -0.0000000
 C   -2.8381189    5.9474718    0.0000000  0.00    0.0015983    0.0014970   -0.0000000
 C   -3.5187639    7.2009327    0.0000000  0.00    0.0016348   -0.0014606   -0.0000000
 C   -3.6457912    2.3486232    0.0000000  0.00    0.0019479   -0.0031434   -0.0000000
 C   -2.8652014    3.5034911    0.0000000  0.00    0.0008017    0.0019850   -0.0000000
 C   -3.7821535    0.0000000    0.0000000  0.00   -0.0012784   -0.0000000   -0.0000000
 C   -2.9829619    1.1277185    0.0000000  0.00   -0.0028126    0.0033780   -0.0000000
 C   -1.4162076    5.8576161    0.0000000  0.00    0.0018134    0.0009638   -0.0000000
 C   -0.7118328    7.0818348    0.0000000  0.00   -0.0009983    0.0021122   -0.0000000
 C   -2.7613150    8.3705121    0.0000000  0.00   -0.0035857    0.0016014   -0.0000000
 C   -1.4034490    8.3058271    0.0000000  0.00    0.0057853    0.0023633   -0.0000000
 C   -1.4259154    3.3405276    0.0000000  0.00    0.0008631    0.0008925   -0.0000000
 C   -0.7125288    4.5848466    0.0000000  0.00    0.0011120    0.0020055   -0.0000000
 C   -1.5819818    0.8087551    0.0000000  0.00    0.0019120    0.0004014   -0.0000000
 C   -0.7387566    1.9967994    0.0000000  0.00    0.0003346    0.0015785   -0.0000000
 H   -8.8633679    7.3714760    0.0000000  0.00   -0.0007101   -0.0018442   -0.0000000
 H   -7.5648410    9.4781280    0.0000000  0.00   -0.0023628    0.0006401   -0.0000000
 H   -5.1324372    9.4284007    0.0000000  0.00   -0.0012290    0.0003503   -0.0000000
 H   -8.9285079    4.9398755    0.0000000  0.00    0.0003036   -0.0016791   -0.0000000
 H   -9.0170396    2.5043961    0.0000000  0.00    0.0014734    0.0046839   -0.0000000
 H   -9.0532797    0.0000000    0.0000000  0.00    0.0016905   -0.0000000   -0.0000000
 H   -3.2362858    9.3398572    0.0000000  0.00    0.0009265   -0.0010530   -0.0000000
 H   -0.8649128    9.2375999    0.0000000  0.00   -0.0017099    0.0001633   -0.0000000
 C    7.1211989    6.1017176    0.0000000  0.00    0.0001291   -0.0002178   -0.0000000
 C    5.6874184    6.0619050    0.0000000  0.00   -0.0024443   -0.0004908   -0.0000000
 C    7.7795111    7.3509066    0.0000000  0.00   -0.0014496    0.0017875   -0.0000000
 C    4.9625283    7.2729900    0.0000000  0.00   -0.0026678    0.0001712   -0.0000000
 C    7.0550906    8.5216818    0.0000000  0.00   -0.0000357   -0.0026086   -0.0000000
 C    5.6631532    8.4877841    0.0000000  0.00    0.0001595    0.0007102   -0.0000000
 C    7.2017388    3.6687268    0.0000000  0.00    0.0007675    0.0026770   -0.0000000
 C    5.7585562    3.6325586    0.0000000  0.00   -0.0011784   -0.0008806   -0.0000000
 C    7.8444230    4.9035340    0.0000000  0.00   -0.0023581   -0.0017264   -0.0000000
 C    5.0012250    4.8140490    0.0000000  0.00   -0.0001239    0.0015807   -0.0000000
 C    7.2850420    1.2323530    0.0000000  0.00    0.0017165    0.0001772   -0.0000000
 C    5.8480831    1.2223907    0.0000000  0.00    0.0017582   -0.0003288   -0.0000000
 C    7.9331247    2.4635831    0.0000000  0.00    0.0001671   -0.0000158   -0.0000000
 C    5.0840949    2.3960051    0.0000000  0.00    0.0003681    0.0046511   -0.0000000
 C    3.5649508    4.7465581    0.0000000  0.00   -0.0013302    0.0014354   -0.0000000
 C    2.8381189    5.9474718    0.0000000  0.00   -0.0015983    0.0014970   -0.0000000
 C    3.5187639    7.2009327    0.0000000  0.00   -0.0016348   -0.0014606   -0.0000000
 C    3.6457912    2.3486232    0.0000000  0.00   -0.0019479   -0.0031434   -0.0000000
 C    2.8652014    3.5034911    0.0000000  0.00   -0.0008017    0.0019850   -0.0000000
 C    2.9829619    1.1277185    0.0000000  0.00    0.0028126    0.0033780   -0.0000000
 C    1.4162076    5.8576161    0.0000000  0.00   -0.0018134    0.0009638   -0.0000000
 C    0.7118328    7.0818348    0.0000000  0.00    0.0009983    0.0021122   -0.0000000
 C    2.7613150    8.3705121    0.0000000  0.00    0.0035857    0.0016014   -0.0000000
 C    1.4034490    8.3058271    0.0000000  0.00   -0.0057853    0.0023633   -0.0000000
 C    1.4259154    3.3405276    0.0000000  0.00   -0.0008631    0.0008925   -0.0000000
 C    0.7125288    4.5848466    0.0000000  0.00   -0.0011120    0.0020055   -0.0000000
 C    1.5819818    0.8087551    0.0000000  0.00   -0.0019120    0.0004014   -0.0000000
 C    0.7387566    1.9967994    0.0000000  0.00   -0.0003346    0.0015785   -0.0000000
 H    8.8633679    7.3714760    0.0000000  0.00    0.0007101   -0.0018442   -0.0000000
 H    7.5648410    9.4781280    0.0000000  0.00    0.0023628    0.0006401   -0.0000000
 H    5.1324372    9.4284007    0.0000000  0.00    0.0012290    0.0003503   -0.0000000
 H    8.9285079    4.9398755    0.0000000  0.00   -0.0003036   -0.0016791   -0.0000000
 H    9.0170396    2.5043961    0.0000000  0.00   -0.0014734    0.0046839   -0.0000000
 H    3.2362858    9.3398572    0.0000000  0.00   -0.0009265   -0.0010530   -0.0000000
 H    0.8649128    9.2375999    0.0000000  0.00    0.0017099    0.0001633   -0.0000000
 C   -7.1211989   -6.1017176    0.0000000  0.00   -0.0001291    0.0002178   -0.0000000
 C   -5.6874184   -6.0619050    0.0000000  0.00    0.0024443    0.0004908   -0.0000000
 C   -7.7795111   -7.3509066    0.0000000  0.00    0.0014496   -0.0017875   -0.0000000
 C   -4.9625283   -7.2729900    0.0000000  0.00    0.0026678   -0.0001712   -0.0000000
 C   -7.0550906   -8.5216818    0.0000000  0.00    0.0000357    0.0026086   -0.0000000
 C   -5.6631532   -8.4877841    0.0000000  0.00   -0.0001595   -0.0007102   -0.0000000
 C   -7.2017388   -3.6687268    0.0000000  0.00   -0.0007675   -0.0026770   -0.0000000
 C   -5.7585562   -3.6325586    0.0000000  0.00    0.0011784    0.0008806   -0.0000000
 C   -7.8444230   -4.9035340    0.0000000  0.00    0.0023581    0.0017264   -0.0000000
 C   -5.0012250   -4.8140490    0.0000000  0.00    0.0001239   -0.0015807   -0.0000000
 C   -7.2850420   -1.2323530    0.0000000  0.00   -0.0017165   -0.0001772   -0.0000000
 C   -5.8480831   -1.2223907    0.0000000  0.00   -0.0017582    0.0003288   -0.0000000
 C   -7.9331247   -2.4635831    0.0000000  0.00   -0.0001671    0.0000158   -0.0000000
 C   -5.0840949   -2.3960051    0.0000000  0.00   -0.0003681   -0.0046511   -0.0000000
 C   -3.5649508   -4.7465581    0.0000000  0.00    0.0013302   -0.0014354   -0.0000000
 C   -2.8381189   -5.9474718    0.0000000  0.00    0.0015983   -0.0014970   -0.0000000
 C   -3.5187639   -7.2009327    0.0000000  0.00    0.0016348    0.0014606   -0.0000000
 C   -3.6457912   -2.3486232    0.0000000  0.00    0.0019479    0.0031434   -0.0000000
 C   -2.8652014   -3.5034911    0.0000000  0.00    0.0008017   -0.0019850   -0.0000000
 C   -2.9829619   -1.1277185    0.0000000  0.00   -0.0028126   -0.0033780   -0.0000000
 C   -1.4162076   -5.8576161    0.0000000  0.00    0.0018134   -0.0009638   -0.0000000
 C   -0.7118328   -7.0818348    0.0000000  0.00   -0.0009983   -0.0021122   -0.0000000
 C   -2.7613150   -8.3705121    0.0000000  0.00   -0.0035857   -0.0016014   -0.0000000
 C   -1.4034490   -8.3058271    0.0000000  0.00    0.0057853   -0.0023633   -0.0000000
 C   -1.4259154   -3.3405276    0.0000000  0.00    0.0008631   -0.0008925   -0.0000000
 C   -0.7125288   -4.5848466    0.0000000  0.00    0.0011120   -0.0020055   -0.0000000
 C   -1.5819818   -0.8087551    0.0000000  0.00    0.0019120   -0.0004014   -0.0000000
 C   -0.7387566   -1.9967994    0.0000000  0.00    0.0003346   -0.0015785   -0.0000000
 H   -8.8633679   -7.3714760    0.0000000  0.00   -0.0007101    0.0018442   -0.0000000
 H   -7.5648410   -9.4781280    0.0000000  0.00   -0.0023628   -0.0006401   -0.0000000
 H   -5.1324372   -9.4284007    0.0000000  0.00   -0.0012290   -0.0003503   -0.0000000
 H   -8.9285079   -4.9398755    0.0000000  0.00    0.0003036    0.0016791   -0.0000000
 H   -9.0170396   -2.5043961    0.0000000  0.00    0.0014734   -0.0046839   -0.0000000
 H   -3.2362858   -9.3398572    0.0000000  0.00    0.0009265    0.0010530   -0.0000000
 H   -0.8649128   -9.2375999    0.0000000  0.00   -0.0017099   -0.0001633   -0.0000000
