148
 Energy =   -4513.2515153660
 C    7.1101234   -6.1033807    0.0000000  0.00   -0.0014276   -0.0010177   -0.0000000
 C    5.6784846   -6.0623314    0.0000000  0.00    0.0013968    0.0001035   -0.0000000
 C    7.7698425   -7.3490276    0.0000000  0.00    0.0022306    0.0009391   -0.0000000
 C    4.9540724   -7.2712334    0.0000000  0.00   -0.0008866   -0.0009988   -0.0000000
 C    7.0452343   -8.5207260    0.0000000  0.00   -0.0017536   -0.0014011   -0.0000000
 C    5.6554782   -8.4870064    0.0000000  0.00    0.0011628    0.0004547   -0.0000000
 C    7.1945404   -3.6677778    0.0000000  0.00   -0.0002041   -0.0004906   -0.0000000
 C    5.7502853   -3.6315645    0.0000000  0.00    0.0015957   -0.0014645   -0.0000000
 C    7.8349797   -4.9037784    0.0000000  0.00    0.0002058    0.0013242   -0.0000000
 C    4.9937222   -4.8130038    0.0000000  0.00   -0.0012357    0.0015751   -0.0000000
 C    7.2827825   -1.2294195    0.0000000  0.00    0.0024088    0.0017204   -0.0000000
 C    5.8468709   -1.2206167    0.0000000  0.00    0.0001881   -0.0027987   -0.0000000
 C    7.9286060   -2.4676465    0.0000000  0.00   -0.0009451    0.0001108   -0.0000000
 C    5.0788943   -2.3978521    0.0000000  0.00   -0.0014691    0.0023726   -0.0000000
 C    7.9653233    0.0000000    0.0000000  0.00   -0.0025732   -0.0000000   -0.0000000
 C    5.1696679    0.0000000    0.0000000  0.00    0.0000422   -0.0000000   -0.0000000
 C    3.5604625   -4.7475487    0.0000000  0.00    0.0005894   -0.0013409   -0.0000000
 C    2.8330386   -5.9511497    0.0000000  0.00   -0.0011452   -0.0001446   -0.0000000
 C    3.5113684   -7.2043387    0.0000000  0.00   -0.0002535    0.0014172   -0.0000000
 C    3.6424671   -2.3501610    0.0000000  0.00    0.0027364   -0.0031373   -0.0000000
 C    2.8620735   -3.5032671    0.0000000  0.00   -0.0023263    0.0002748   -0.0000000
 C    3.7781374    0.0000000    0.0000000  0.00    0.0041345   -0.0000000   -0.0000000
 C    2.9791523   -1.1266971    0.0000000  0.00   -0.0010779    0.0026172   -0.0000000
 C    1.4134894   -5.8615611    0.0000000  0.00   -0.0010538    0.0008823   -0.0000000
 C    0.7102691   -7.0860958    0.0000000  0.00   -0.0002274    0.0000187   -0.0000000
 C    2.7547160   -8.3767749    0.0000000  0.00   -0.0000830   -0.0012856   -0.0000000
 C    1.3997605   -8.3136388    0.0000000  0.00    0.0005259    0.0025482   -0.0000000
 C    1.4224356   -3.3404369    0.0000000  0.00   -0.0012136   -0.0019721   -0.0000000
 C    0.7099411   -4.5873132    0.0000000  0.00    0.0032188   -0.0003234   -0.0000000
 C    1.5822127   -0.8067404    0.0000000  0.00   -0.0000081   -0.0006855   -0.0000000
 C    0.7353255   -2.0032496    0.0000000  0.00   -0.0006441   -0.0017014   -0.0000000
 H    8.8557058   -7.3673826    0.0000000  0.00    0.0001126   -0.0009454   -0.0000000
 H    7.5544055   -9.4801612    0.0000000  0.00   -0.0000270   -0.0009790   -0.0000000
 H    5.1223859   -9.4323991    0.0000000  0.00    0.0007415   -0.0010412   -0.0000000
 H    8.9196971   -4.9423698    0.0000000  0.00   -0.0004790   -0.0001887   -0.0000000
 H    9.0123052   -2.5134201    0.0000000  0.00   -0.0016674    0.0001323   -0.0000000
 H    9.0499371    0.0000000    0.0000000  0.00    0.0012458   -0.0000000   -0.0000000
 H    3.2204445   -9.3596896    0.0000000  0.00   -0.0002219   -0.0007664   -0.0000000
 H    0.8683455   -9.2623033    0.0000000  0.00    0.0022687    0.0008871   -0.0000000
 C   -7.1101234    6.1033807    0.0000000  0.00    0.0014276    0.0010177   -0.0000000
 C   -5.6784846    6.0623314    0.0000000  0.00   -0.0013968   -0.0001035   -0.0000000
 C   -7.7698425    7.3490276    0.0000000  0.00   -0.0022306   -0.0009391   -0.0000000
 C   -4.9540724    7.2712334    0.0000000  0.00    0.0008866    0.0009988   -0.0000000
 C   -7.0452343    8.5207260    0.0000000  0.00    0.0017536    0.0014011   -0.0000000
 C   -5.6554782    8.4870064    0.0000000  0.00   -0.0011628   -0.0004547   -0.0000000
 C   -7.1945404    3.6677778    0.0000000  0.00    0.0002041    0.0004906   -0.0000000
 C   -5.7502853    3.6315645    0.0000000  0.00   -0.0015957    0.0014645   -0.0000000
 C   -7.8349797    4.9037784    0.0000000  0.00   -0.0002058   -0.0013242   -0.0000000
 C   -4.9937222    4.8130038    0.0000000  0.00    0.0012357   -0.0015751   -0.0000000
 C   -7.2827825    1.2294195    0.0000000  0.00   -0.0024088   -0.0017204   -0.0000000
 C   -5.8468709    1.2206167    0.0000000  0.00   -0.0001881    0.0027987   -0.0000000
 C   -7.9286060    2.4676465    0.0000000  0.00    0.0009451   -0.0001108   -0.0000000
 C   -5.0788943    2.3978521    0.0000000  0.00    0.0014691   -0.0023726   -0.0000000
 C   -7.9653233    0.0000000    0.0000000  0.00    0.0025732   -0.0000000   -0.0000000
 C   -5.1696679    0.0000000    0.0000000  0.00   -0.0000422   -0.0000000   -0.0000000
 C   -3.5604625    4.7475487    0.0000000  0.00   -0.0005894    0.0013409   -0.0000000
 C   -2.8330386    5.9511497    0.0000000  0.00    0.0011452    0.0001446   -0.0000000
 C   -3.5113684    7.2043387    0.0000000  0.00    0.0002535   -0.0014172   -0.0000000
 C   -3.6424671    2.3501610    0.0000000  0.00   -0.0027364    0.0031373   -0.0000000
 C   -2.8620735    3.5032671    0.0000000  0.00    0.0023263   -0.0002748   -0.0000000
 C   -3.7781374    0.0000000    0.0000000  0.00   -0.0041345   -0.0000000   -0.0000000
 C   -2.9791523    1.1266971    0.0000000  0.00    0.0010779   -0.0026172   -0.0000000
 C   -1.4134894    5.8615611    0.0000000  0.00    0.0010538   -0.0008823   -0.0000000
 C   -0.7102691    7.0860958    0.0000000  0.00    0.0002274   -0.0000187   -0.0000000
 C   -2.7547160    8.3767749    0.0000000  0.00    0.0000830    0.0012856   -0.0000000
 C   -1.3997605    8.3136388    0.0000000  0.00   -0.0005259   -0.0025482   -0.0000000
 C   -1.4224356    3.3404369    0.0000000  0.00    0.0012136    0.0019721   -0.0000000
 C   -0.7099411    4.5873132    0.0000000  0.00   -0.0032188    0.0003234   -0.0000000
 C   -1.5822127    0.8067404    0.0000000  0.00    0.0000081    0.0006855   -0.0000000
 C   -0.7353255    2.0032496    0.0000000  0.00    0.0006441    0.0017014   -0.0000000
 H   -8.8557058    7.3673826    0.0000000  0.00   -0.0001126    0.0009454   -0.0000000
 H   -7.5544055    9.4801612    0.0000000  0.00    0.0000270    0.0009790   -0.0000000
 H   -5.1223859    9.4323991    0.0000000  0.00   -0.0007415    0.0010412   -0.0000000
 H   -8.9196971    4.9423698    0.0000000  0.00    0.0004790    0.0001887   -0.0000000
 H   -9.0123052    2.5134201    0.0000000  0.00    0.0016674   -0.0001323   -0.0000000
 H   -9.0499371    0.0000000    0.0000000  0.00   -0.0012458   -0.0000000   -0.0000000
 H   -3.2204445    9.3596896    0.0000000  0.00    0.0002219    0.0007664   -0.0000000
 H   -0.8683455    9.2623033    0.0000000  0.00   -0.0022687   -0.0008871   -0.0000000
 C    7.1101234    6.1033807    0.0000000  0.00   -0.0014276    0.0010177   -0.0000000
 C    5.6784846    6.0623314    0.0000000  0.00    0.0013968   -0.0001035   -0.0000000
 C    7.7698425    7.3490276    0.0000000  0.00    0.0022306   -0.0009391   -0.0000000
 C    4.9540724    7.2712334    0.0000000  0.00   -0.0008866    0.0009988   -0.0000000
 C    7.0452343    8.5207260    0.0000000  0.00   -0.0017536    0.0014011   -0.0000000
 C    5.6554782    8.4870064    0.0000000  0.00    0.0011628   -0.0004547   -0.0000000
 C    7.1945404    3.6677778    0.0000000  0.00   -0.0002041    0.0004906   -0.0000000
 C    5.7502853    3.6315645    0.0000000  0.00    0.0015957    0.0014645   -0.0000000
 C    7.8349797    4.9037784    0.0000000  0.00    0.0002058   -0.0013242   -0.0000000
 C    4.9937222    4.8130038    0.0000000  0.00   -0.0012357   -0.0015751   -0.0000000
 C    7.2827825    1.2294195    0.0000000  0.00    0.0024088   -0.0017204   -0.0000000
 C    5.8468709    1.2206167    0.0000000  0.00    0.0001881    0.0027987   -0.0000000
 C    7.9286060    2.4676465    0.0000000  0.00   -0.0009451   -0.0001108   -0.0000000
 C    5.0788943    2.3978521    0.0000000  0.00   -0.0014691   -0.0023726   -0.0000000
 C    3.5604625    4.7475487    0.0000000  0.00    0.0005894    0.0013409   -0.0000000
 C    2.8330386    5.9511497    0.0000000  0.00   -0.0011452    0.0001446   -0.0000000
 C    3.5113684    7.2043387    0.0000000  0.00   -0.0002535   -0.0014172   -0.0000000
 C    3.6424671    2.3501610    0.0000000  0.00    0.0027364    0.0031373   -0.0000000
 C    2.8620735    3.5032671    0.0000000  0.00   -0.0023263   -0.0002748   -0.0000000
 C    2.9791523    1.1266971    0.0000000  0.00   -0.0010779   -0.0026172   -0.0000000
 C    1.4134894    5.8615611    0.0000000  0.00   -0.0010538   -0.0008823   -0.0000000
 C    0.7102691    7.0860958    0.0000000  0.00   -0.0002274   -0.0000187   -0.0000000
 C    2.7547160    8.3767749    0.0000000  0.00   -0.0000830    0.0012856   -0.0000000
 C    1.3997605    8.3136388    0.0000000  0.00    0.0005259   -0.0025482   -0.0000000
 C    1.4224356    3.3404369    0.0000000  0.00   -0.0012136    0.0019721   -0.0000000
 C    0.7099411    4.5873132    0.0000000  0.00    0.0032188    0.0003234   -0.0000000
 C    1.5822127    0.8067404    0.0000000  0.00   -0.0000081    0.0006855   -0.0000000
 C    0.7353255    2.0032496    0.0000000  0.00   -0.0006441    0.0017014   -0.0000000
 H    8.8557058    7.3673826    0.0000000  0.00    0.0001126    0.0009454   -0.0000000
 H    7.5544055    9.4801612    0.0000000  0.00   -0.0000270    0.0009790   -0.0000000
 H    5.1223859    9.4323991    0.0000000  0.00    0.0007415    0.0010412   -0.0000000
 H    8.9196971    4.9423698    0.0000000  0.00   -0.0004790    0.0001887   -0.0000000
 H    9.0123052    2.5134201    0.0000000  0.00   -0.0016674   -0.0001323   -0.0000000
 H    3.2204445    9.3596896    0.0000000  0.00   -0.0002219    0.0007664   -0.0000000
 H    0.8683455    9.2623033    0.0000000  0.00    0.0022687   -0.0008871   -0.0000000
 C   -7.1101234   -6.1033807    0.0000000  0.00    0.0014276   -0.0010177   -0.0000000
 C   -5.6784846   -6.0623314    0.0000000  0.00   -0.0013968    0.0001035   -0.0000000
 C   -7.7698425   -7.3490276    0.0000000  0.00   -0.0022306    0.0009391   -0.0000000
 C   -4.9540724   -7.2712334    0.0000000  0.00    0.0008866   -0.0009988   -0.0000000
 C   -7.0452343   -8.5207260    0.0000000  0.00    0.0017536   -0.0014011   -0.0000000
 C   -5.6554782   -8.4870064    0.0000000  0.00   -0.0011628    0.0004547   -0.0000000
 C   -7.1945404   -3.6677778    0.0000000  0.00    0.0002041   -0.0004906   -0.0000000
 C   -5.7502853   -3.6315645    0.0000000  0.00   -0.0015957   -0.0014645   -0.0000000
 C   -7.8349797   -4.9037784    0.0000000  0.00   -0.0002058    0.0013242   -0.0000000
 C   -4.9937222   -4.8130038    0.0000000  0.00    0.0012357    0.0015751   -0.0000000
 C   -7.2827825   -1.2294195    0.0000000  0.00   -0.0024088    0.0017204   -0.0000000
 C   -5.8468709   -1.2206167    0.0000000  0.00   -0.0001881   -0.0027987   -0.0000000
 C   -7.9286060   -2.4676465    0.0000000  0.00    0.0009451    0.0001108   -0.0000000
 C   -5.0788943   -2.3978521    0.0000000  0.00    0.0014691    0.0023726   -0.0000000
 C   -3.5604625   -4.7475487    0.0000000  0.00   -0.0005894   -0.0013409   -0.0000000
 C   -2.8330386   -5.9511497    0.0000000  0.00    0.0011452   -0.0001446   -0.0000000
 C   -3.5113684   -7.2043387    0.0000000  0.00    0.0002535    0.0014172   -0.0000000
 C   -3.6424671   -2.3501610    0.0000000  0.00   -0.0027364   -0.0031373   -0.0000000
 C   -2.8620735   -3.5032671    0.0000000  0.00    0.0023263    0.0002748   -0.0000000
 C   -2.9791523   -1.1266971    0.0000000  0.00    0.0010779    0.0026172   -0.0000000
 C   -1.4134894   -5.8615611    0.0000000  0.00    0.0010538    0.0008823   -0.0000000
 C   -0.7102691   -7.0860958    0.0000000  0.00    0.0002274    0.0000187   -0.0000000
 C   -2.7547160   -8.3767749    0.0000000  0.00    0.0000830   -0.0012856   -0.0000000
 C   -1.3997605   -8.3136388    0.0000000  0.00   -0.0005259    0.0025482   -0.0000000
 C   -1.4224356   -3.3404369    0.0000000  0.00    0.0012136   -0.0019721   -0.0000000
 C   -0.7099411   -4.5873132    0.0000000  0.00   -0.0032188   -0.0003234   -0.0000000
 C   -1.5822127   -0.8067404    0.0000000  0.00    0.0000081   -0.0006855   -0.0000000
 C   -0.7353255   -2.0032496    0.0000000  0.00    0.0006441   -0.0017014   -0.0000000
 H   -8.8557058   -7.3673826    0.0000000  0.00   -0.0001126   -0.0009454   -0.0000000
 H   -7.5544055   -9.4801612    0.0000000  0.00    0.0000270   -0.0009790   -0.0000000
 H   -5.1223859   -9.4323991    0.0000000  0.00   -0.0007415   -0.0010412   -0.0000000
 H   -8.9196971   -4.9423698    0.0000000  0.00    0.0004790   -0.0001887   -0.0000000
 H   -9.0123052   -2.5134201    0.0000000  0.00    0.0016674    0.0001323   -0.0000000
 H   -3.2204445   -9.3596896    0.0000000  0.00    0.0002219   -0.0007664   -0.0000000
 H   -0.8683455   -9.2623033    0.0000000  0.00   -0.0022687    0.0008871   -0.0000000
